@<TRIPOS>MOLECULE
T05
   59    62     1     0     0
SMALL
No Charge or Current Charge


@<TRIPOS>ATOM
      1 C4          -4.3330     1.1830     1.6750 ca         1 T05      -0.107000
      2 C13          0.3040    -2.4910    -2.0010 ca         1 T05      -0.115000
      3 C3          -3.3640     1.4070     2.6710 ca         1 T05      -0.139000
      4 C5          -4.1450     0.1590     0.7300 ca         1 T05      -0.138000
      5 C12          0.5310    -1.3000    -2.7130 ca         1 T05      -0.043000
      6 C7          -2.0300    -0.4200     1.7870 ca         1 T05      -0.136000
      7 C10         -1.4830    -0.3480    -1.7340 ca         1 T05      -0.078000
      8 C14         -0.8050    -2.6180    -1.1350 ca         1 T05      -0.077600
      9 C2          -2.2080     0.6060     2.7330 ca         1 T05      -0.070300
     10 C6          -2.9890    -0.6350     0.7830 ca         1 T05       0.129100
     11 C9          -1.6950    -1.5320    -1.0030 ca         1 T05       0.088100
     12 C11         -0.3580    -0.2150    -2.5750 ca         1 T05      -0.313500
     13 C28          1.7380    -0.6540     1.2480 cc         1 T05      -0.014400
     14 C29          2.5230    -1.3070     2.1730 cd         1 T05      -0.254400
     15 C30          3.6650    -0.6040     2.8070 c          1 T05       0.584200
     16 C33          3.0980     1.3610     1.4630 c          1 T05       0.613000
     17 C23         -0.5740     3.2430    -0.5640 c6         1 T05      -0.101400
     18 C24          0.3530     2.6170     0.5090 c6         1 T05      -0.087400
     19 C22          0.2100     3.5350    -1.8710 c6         1 T05       0.222800
     20 C26          1.7560     1.6490    -1.4440 c6         1 T05       0.204800
     21 C25          1.0840     1.3720    -0.0640 c6         1 T05       0.093700
     22 C1          -1.1610     0.8420     3.8110 c3         1 T05      -0.045800
     23 C35          2.2950    -2.7420     2.5940 c3         1 T05      -0.034900
     24 N32          3.8350     0.6700     2.3700 ns         1 T05      -0.470500
     25 N27          1.9860     0.6820     0.9080 n          1 T05      -0.303000
     26 N21          0.8340     2.3020    -2.4180 n3         1 T05      -0.771500
     27 O16         -0.9790    -4.9520    -0.9900 o          1 T05      -0.698500
     28 O17         -1.1190    -3.8420     0.8510 o          1 T05      -0.698500
     29 O8          -2.7830    -1.6080    -0.1640 os         1 T05      -0.234200
     30 S18         -0.0840     1.3240    -3.4870 sy         1 T05       1.181600
     31 H1          -5.2240     1.8050     1.6340 ha         1 T05       0.102000
     32 H2           0.9980    -3.3210    -2.1140 ha         1 T05       0.129000
     33 H3          -3.5160     2.2020     3.3970 ha         1 T05       0.100000
     34 H4          -4.8850    -0.0100    -0.0480 ha         1 T05       0.123000
     35 H5           1.3970    -1.2260    -3.3690 ha         1 T05       0.127000
     36 H6          -1.1520    -1.0570     1.8330 ha         1 T05       0.160000
     37 H7          -2.1890     0.4730    -1.6310 ha         1 T05       0.121000
     38 H8           0.8990    -1.0970     0.7210 h4         1 T05       0.236000
     39 H9          -1.4170     2.5720    -0.7720 hc         1 T05       0.054200
     40 H10         -1.0090     4.1750    -0.1800 hc         1 T05       0.054200
     41 H11          1.0730     3.3770     0.8400 hc         1 T05       0.062200
     42 H12         -0.2330     2.3370     1.3940 hc         1 T05       0.062200
     43 H13         -0.4470     4.0230    -2.6060 h1         1 T05       0.063700
     44 H14          0.9960     4.2680    -1.6380 h1         1 T05       0.063700
     45 H15          2.6150     2.3130    -1.2750 h1         1 T05       0.075700
     46 H16          2.1740     0.7170    -1.8500 h1         1 T05       0.075700
     47 H17          0.2740     0.6680    -0.2670 h1         1 T05       0.077700
     48 H18         -1.3860     0.2530     4.7090 hc         1 T05       0.040033
     49 H19         -0.1600     0.5580     3.4660 hc         1 T05       0.040033
     50 H20         -1.1200     1.8980     4.1040 hc         1 T05       0.040033
     51 H21          3.1790    -3.3600     2.3930 hc         1 T05       0.060033
     52 H22          2.0750    -2.8100     3.6670 hc         1 T05       0.060033
     53 H23          1.4520    -3.1910     2.0560 hc         1 T05       0.060033
     54 H24          4.6150     1.1680     2.7670 hn         1 T05       0.332500
     55 O31          4.4100    -1.0940     3.6390 o          1 T05      -0.543000
     56 C15         -1.0140    -3.8990    -0.3670 c          1 T05       0.723600
     57 O19          0.7770     1.0820    -4.6500 o          1 T05      -0.554000
     58 O34          3.4180     2.5000     1.1650 o          1 T05      -0.579000
     59 O20         -1.3890     1.9790    -3.6330 o          1 T05      -0.554000
@<TRIPOS>BOND
     1     1     3 ar  
     2     1     4 ar  
     3     1    31 1   
     4     2     5 ar  
     5     2     8 ar  
     6     2    32 1   
     7     3     9 ar  
     8     3    33 1   
     9     4    10 ar  
    10     4    34 1   
    11     5    12 ar  
    12     5    35 1   
    13     6     9 ar  
    14     6    10 ar  
    15     6    36 1   
    16     7    11 ar  
    17     7    12 ar  
    18     7    37 1   
    19     8    11 ar  
    20     8    56 1   
    21     9    22 1   
    22    10    29 1   
    23    11    29 1   
    24    12    30 1   
    25    13    14 2   
    26    13    25 1   
    27    13    38 1   
    28    14    15 1   
    29    14    23 1   
    30    15    24 1   
    31    15    55 2   
    32    16    24 1   
    33    16    25 1   
    34    16    58 2   
    35    17    18 1   
    36    17    19 1   
    37    17    39 1   
    38    17    40 1   
    39    18    21 1   
    40    18    41 1   
    41    18    42 1   
    42    19    26 1   
    43    19    43 1   
    44    19    44 1   
    45    20    21 1   
    46    20    26 1   
    47    20    45 1   
    48    20    46 1   
    49    21    25 1   
    50    21    47 1   
    51    22    48 1   
    52    22    49 1   
    53    22    50 1   
    54    23    51 1   
    55    23    52 1   
    56    23    53 1   
    57    24    54 1   
    58    26    30 1   
    59    27    56 1   
    60    28    56 1   
    61    30    57 2   
    62    30    59 2   
@<TRIPOS>SUBSTRUCTURE
     1 T05         1 TEMP              0 ****  ****    0 ROOT
