@<TRIPOS>MOLECULE
T05
   59    62     1     0     0
SMALL
abcg2


@<TRIPOS>ATOM
      1 C4          -4.1850     1.3280     1.6070 ca         1 T05      -0.107000
      2 C13          0.2370    -2.5050    -1.9110 ca         1 T05      -0.115000
      3 C3          -3.2140     1.4490     2.5910 ca         1 T05      -0.139000
      4 C5          -4.0740     0.3620     0.6160 ca         1 T05      -0.138000
      5 C12          0.5610    -1.3810    -2.6560 ca         1 T05      -0.043000
      6 C7          -2.0090    -0.3790     1.6220 ca         1 T05      -0.136000
      7 C10         -1.4500    -0.3060    -1.8570 ca         1 T05      -0.078000
      8 C14         -0.8810    -2.5310    -1.0830 ca         1 T05      -0.077600
      9 C2          -2.1180     0.5900     2.6150 ca         1 T05      -0.070300
     10 C6          -2.9770    -0.4860     0.6350 ca         1 T05       0.129100
     11 C9          -1.7270    -1.4230    -1.0860 ca         1 T05       0.088100
     12 C11         -0.2870    -0.2850    -2.6150 ca         1 T05      -0.313500
     13 C28          1.7910    -0.5690     1.2730 cc         1 T05      -0.014400
     14 C29          2.5480    -1.2800     2.1250 cd         1 T05      -0.254400
     15 C30          3.7050    -0.6270     2.7040 c          1 T05       0.584200
     16 C33          3.1190     1.4070     1.4160 c          1 T05       0.613000
     17 C23         -0.7400     3.0280    -0.3490 c6         1 T05      -0.101400
     18 C24          0.3560     2.5910     0.6180 c6         1 T05      -0.087400
     19 C22         -0.1670     3.3280    -1.7280 c6         1 T05       0.222800
     20 C26          1.7120     1.7740    -1.3370 c6         1 T05       0.204800
     21 C25          1.0870     1.3990     0.0100 c6         1 T05       0.093700
     22 C1          -1.0850     0.6690     3.7010 c3         1 T05      -0.045800
     23 C35          2.2450    -2.6950     2.4950 c3         1 T05      -0.034900
     24 N32          3.8850     0.6800     2.2900 ns         1 T05      -0.470500
     25 N27          2.0300     0.7350     0.9150 n          1 T05      -0.303000
     26 N21          0.6640     2.2360    -2.2390 n3         1 T05      -0.771500
     27 O16         -1.2720    -4.8210    -0.7460 o          1 T05      -0.698500
     28 O17         -1.0890    -3.4880     1.0420 o          1 T05      -0.698500
     29 O8          -2.8720    -1.4540    -0.3370 os         1 T05      -0.234200
     30 S18          0.1690     1.2200    -3.4320 sy         1 T05       1.181600
     31 H1          -5.0340     2.0000     1.6010 ha         1 T05       0.102000
     32 H2           0.8930    -3.3640    -1.9430 ha         1 T05       0.129000
     33 H3          -3.3130     2.2150     3.3510 ha         1 T05       0.100000
     34 H4          -4.8230     0.2690    -0.1610 ha         1 T05       0.123000
     35 H5           1.4610    -1.3710    -3.2560 ha         1 T05       0.127000
     36 H6          -1.1920    -1.0910     1.6420 ha         1 T05       0.160000
     37 H7          -2.1320     0.5360    -1.8550 ha         1 T05       0.121000
     38 H8           0.9160    -1.0160     0.8170 h4         1 T05       0.236000
     39 H9          -1.5080     2.2530    -0.4170 hc         1 T05       0.054200
     40 H10         -1.2340     3.9260     0.0270 hc         1 T05       0.054200
     41 H11          1.0460     3.4190     0.7920 hc         1 T05       0.062200
     42 H12         -0.0770     2.3140     1.5800 hc         1 T05       0.062200
     43 H13         -0.9550     3.5510    -2.4430 h1         1 T05       0.063700
     44 H14          0.4740     4.2130    -1.6770 h1         1 T05       0.063700
     45 H15          2.4400     2.5780    -1.2180 h1         1 T05       0.075700
     46 H16          2.2440     0.9250    -1.7680 h1         1 T05       0.075700
     47 H17          0.3310     0.6380    -0.1890 h1         1 T05       0.077700
     48 H18         -1.2150    -0.1410     4.4210 hc         1 T05       0.040033
     49 H19         -0.0720     0.5790     3.3030 hc         1 T05       0.040033
     50 H20         -1.1460     1.6090     4.2480 hc         1 T05       0.040033
     51 H21          3.0540    -3.3640     2.2000 hc         1 T05       0.060033
     52 H22          2.1150    -2.8010     3.5730 hc         1 T05       0.060033
     53 H23          1.3300    -3.0340     2.0110 hc         1 T05       0.060033
     54 H24          4.6860     1.1720     2.6680 hn         1 T05       0.332500
     55 O31          4.4790    -1.1420     3.4900 o          1 T05      -0.543000
     56 C15         -1.1180    -3.7300    -0.1770 c          1 T05       0.723600
     57 O19          1.3220     0.9150    -4.2640 o          1 T05      -0.554000
     58 O34          3.3950     2.5530     1.1200 o          1 T05      -0.579000
     59 O20         -1.0130     1.8100    -4.0410 o          1 T05      -0.554000
@<TRIPOS>BOND
     1     1     3 ar  
     2     1     4 ar  
     3     1    31 1   
     4     2     5 ar  
     5     2     8 ar  
     6     2    32 1   
     7     3     9 ar  
     8     3    33 1   
     9     4    10 ar  
    10     4    34 1   
    11     5    12 ar  
    12     5    35 1   
    13     6     9 ar  
    14     6    10 ar  
    15     6    36 1   
    16     7    11 ar  
    17     7    12 ar  
    18     7    37 1   
    19     8    11 ar  
    20     8    56 1   
    21     9    22 1   
    22    10    29 1   
    23    11    29 1   
    24    12    30 1   
    25    13    14 2   
    26    13    25 1   
    27    13    38 1   
    28    14    15 1   
    29    14    23 1   
    30    15    24 1   
    31    15    55 2   
    32    16    24 1   
    33    16    25 1   
    34    16    58 2   
    35    17    18 1   
    36    17    19 1   
    37    17    39 1   
    38    17    40 1   
    39    18    21 1   
    40    18    41 1   
    41    18    42 1   
    42    19    26 1   
    43    19    43 1   
    44    19    44 1   
    45    20    21 1   
    46    20    26 1   
    47    20    45 1   
    48    20    46 1   
    49    21    25 1   
    50    21    47 1   
    51    22    48 1   
    52    22    49 1   
    53    22    50 1   
    54    23    51 1   
    55    23    52 1   
    56    23    53 1   
    57    24    54 1   
    58    26    30 1   
    59    27    56 1   
    60    28    56 1   
    61    30    57 2   
    62    30    59 2   
@<TRIPOS>SUBSTRUCTURE
     1 T05         1 TEMP              0 ****  ****    0 ROOT
