@<TRIPOS>MOLECULE
T06
   47    49     1     0     0
SMALL
No Charge or Current Charge


@<TRIPOS>ATOM
      1 C01         11.6000   -12.1380   -30.1880 ca         1 T06       0.373300
      2 C02         12.0770   -12.0720   -28.8640 ca         1 T06      -0.193000
      3 C03         13.4300   -12.3590   -28.5840 ca         1 T06      -0.003600
      4 C04         14.2290   -12.6850   -29.7070 ca         1 T06      -0.242900
      5 C06         13.6870   -12.7440   -30.9660 ca         1 T06       0.383500
      6 C07         15.6430   -13.0060   -29.8590 cc         1 T06       0.428900
      7 C09         10.1440   -11.8290   -30.5060 c3         1 T06      -0.122700
      8 C10         13.9190   -12.3330   -27.1520 c          1 T06       0.716600
      9 C11         16.7240   -12.8950   -28.7940 c3         1 T06      -0.083000
     10 C13          9.8570   -10.3150   -30.5620 c3         1 T06      -0.083100
     11 C14         17.9870   -13.7700   -29.0600 c3         1 T06      -0.066900
     12 C15         17.0930   -11.4100   -28.5100 c3         1 T06      -0.066900
     13 C16         17.7080   -15.2890   -29.0570 c3         1 T06      -0.086600
     14 C17         17.7460   -10.6550   -29.6900 c3         1 T06      -0.086600
     15 C20         15.4010   -12.5020   -34.0470 ca         1 T06      -0.097000
     16 C21         15.2820   -12.6710   -35.4390 ca         1 T06      -0.145500
     17 C22         14.3820   -13.6160   -35.9530 ca         1 T06       0.132000
     18 C24         13.5990   -14.3960   -35.0860 ca         1 T06      -0.145500
     19 C25         13.7170   -14.2270   -33.6940 ca         1 T06      -0.097000
     20 C26         14.6170   -13.2770   -33.1670 ca         1 T06       0.058800
     21 N05         12.3900   -12.4740   -31.2330 nb         1 T06      -0.734000
     22 N08         15.9560   -13.2640   -31.1380 nd         1 T06      -0.559100
     23 N12         14.7410   -13.1100   -31.7870 na         1 T06       0.037100
     24 O18         13.9670   -11.2530   -26.5810 o          1 T06      -0.701000
     25 O19         14.1370   -13.4030   -26.6010 o          1 T06      -0.701000
     26 H1          11.3980   -11.8090   -28.0580 ha         1 T06       0.126000
     27 H2           9.4970   -12.2840   -29.7470 hc         1 T06       0.042700
     28 H3           9.8540   -12.2800   -31.4630 hc         1 T06       0.042700
     29 H4          16.3060   -13.2890   -27.8650 hc         1 T06       0.107700
     30 H5           8.8000   -10.1330   -30.7920 hc         1 T06       0.031700
     31 H6          10.0860    -9.8400   -29.6010 hc         1 T06       0.031700
     32 H7          10.4650    -9.8350   -31.3380 hc         1 T06       0.031700
     33 H8          18.7360   -13.5610   -28.2870 hc         1 T06       0.044450
     34 H9          18.4460   -13.4940   -30.0170 hc         1 T06       0.044450
     35 H10         17.7700   -11.3660   -27.6480 hc         1 T06       0.044450
     36 H11         16.1890   -10.8640   -28.2150 hc         1 T06       0.044450
     37 H12         18.6390   -15.8450   -29.2170 hc         1 T06       0.026033
     38 H13         17.2850   -15.6030   -28.0950 hc         1 T06       0.026033
     39 H14         17.0070   -15.5670   -29.8510 hc         1 T06       0.026033
     40 H15         17.9540    -9.6170   -29.4030 hc         1 T06       0.026033
     41 H16         18.6950   -11.1180   -29.9820 hc         1 T06       0.026033
     42 H17         17.0830   -10.6370   -30.5620 hc         1 T06       0.026033
     43 H18         16.1010   -11.7700   -33.6470 ha         1 T06       0.143500
     44 H19         15.8860   -12.0720   -36.1160 ha         1 T06       0.121500
     45 H20         12.9050   -15.1270   -35.4920 ha         1 T06       0.121500
     46 H21         13.1110   -14.8330   -33.0240 ha         1 T06       0.143500
     47 F23         14.2680   -13.7780   -37.2890 f          1 T06      -0.195000
@<TRIPOS>BOND
     1     1     2 ar  
     2     1     7 1   
     3     1    21 ar  
     4     2     3 ar  
     5     2    26 1   
     6     3     4 ar  
     7     3     8 1   
     8     4     5 ar  
     9     4     6 1   
    10     5    21 ar  
    11     5    23 1   
    12     6     9 1   
    13     6    22 2   
    14     7    10 1   
    15     7    27 1   
    16     7    28 1   
    17     8    24 1   
    18     8    25 1   
    19     9    11 1   
    20     9    12 1   
    21     9    29 1   
    22    10    30 1   
    23    10    31 1   
    24    10    32 1   
    25    11    13 1   
    26    11    33 1   
    27    11    34 1   
    28    12    14 1   
    29    12    35 1   
    30    12    36 1   
    31    13    37 1   
    32    13    38 1   
    33    13    39 1   
    34    14    40 1   
    35    14    41 1   
    36    14    42 1   
    37    15    16 ar  
    38    15    20 ar  
    39    15    43 1   
    40    16    17 ar  
    41    16    44 1   
    42    17    18 ar  
    43    17    47 1   
    44    18    19 ar  
    45    18    45 1   
    46    19    20 ar  
    47    19    46 1   
    48    20    23 1   
    49    22    23 1   
@<TRIPOS>SUBSTRUCTURE
     1 T06         1 TEMP              0 ****  ****    0 ROOT
