@<TRIPOS>MOLECULE
T06
   47    49     1     0     0
SMALL
abcg2


@<TRIPOS>ATOM
      1 C01         11.5790   -12.2390   -30.0190 ca         1 T06       0.373300
      2 C02         12.0900   -12.1040   -28.7180 ca         1 T06      -0.193000
      3 C03         13.4280   -12.3330   -28.4350 ca         1 T06      -0.003600
      4 C04         14.2330   -12.6670   -29.5310 ca         1 T06      -0.242900
      5 C06         13.6170   -12.7520   -30.7890 ca         1 T06       0.383500
      6 C07         15.6180   -12.9280   -29.7870 cc         1 T06       0.428900
      7 C09         10.1250   -11.9860   -30.3000 c3         1 T06      -0.122700
      8 C10         13.9260   -12.2450   -27.0010 c          1 T06       0.716600
      9 C11         16.7600   -12.9010   -28.8200 c3         1 T06      -0.083000
     10 C13          9.9060   -10.6780   -31.0570 c3         1 T06      -0.083100
     11 C14         17.9780   -13.6920   -29.2970 c3         1 T06      -0.066900
     12 C15         17.1140   -11.4450   -28.4620 c3         1 T06      -0.066900
     13 C16         17.7410   -15.1950   -29.3520 c3         1 T06      -0.086600
     14 C17         17.6940   -10.6270   -29.6080 c3         1 T06      -0.086600
     15 C20         15.6490   -12.8800   -33.8480 ca         1 T06      -0.097000
     16 C21         15.6160   -13.0330   -35.2240 ca         1 T06      -0.145500
     17 C22         14.4590   -13.4980   -35.8180 ca         1 T06       0.132000
     18 C24         13.3410   -13.8200   -35.0750 ca         1 T06      -0.145500
     19 C25         13.3820   -13.6800   -33.6950 ca         1 T06      -0.097000
     20 C26         14.5350   -13.2050   -33.0760 ca         1 T06       0.058800
     21 N05         12.3350   -12.5620   -31.0610 nb         1 T06      -0.734000
     22 N08         15.7980   -13.1510   -31.0600 nd         1 T06      -0.559100
     23 N12         14.6020   -13.0600   -31.6820 na         1 T06       0.037100
     24 O18         13.8360   -11.1270   -26.4690 o          1 T06      -0.701000
     25 O19         14.3440   -13.3100   -26.5160 o          1 T06      -0.701000
     26 H1          11.4090   -11.8320   -27.9220 ha         1 T06       0.126000
     27 H2           9.5660   -11.9670   -29.3620 hc         1 T06       0.042700
     28 H3           9.7290   -12.8170   -30.8880 hc         1 T06       0.042700
     29 H4          16.4040   -13.3680   -27.8980 hc         1 T06       0.107700
     30 H5           8.8480   -10.5270   -31.2680 hc         1 T06       0.031700
     31 H6          10.2550    -9.8230   -30.4770 hc         1 T06       0.031700
     32 H7          10.4420   -10.6810   -32.0060 hc         1 T06       0.031700
     33 H8          18.8000   -13.4850   -28.6050 hc         1 T06       0.044450
     34 H9          18.3110   -13.3370   -30.2750 hc         1 T06       0.044450
     35 H10         17.8260   -11.4670   -27.6320 hc         1 T06       0.044450
     36 H11         16.2210   -10.9450   -28.0780 hc         1 T06       0.044450
     37 H12         18.6480   -15.7240   -29.6480 hc         1 T06       0.026033
     38 H13         17.4380   -15.5820   -28.3780 hc         1 T06       0.026033
     39 H14         16.9620   -15.4550   -30.0690 hc         1 T06       0.026033
     40 H15         17.8890    -9.6040   -29.2850 hc         1 T06       0.026033
     41 H16         18.6390   -11.0380   -29.9650 hc         1 T06       0.026033
     42 H17         17.0130   -10.5770   -30.4580 hc         1 T06       0.026033
     43 H18         16.5470   -12.5080   -33.3750 ha         1 T06       0.143500
     44 H19         16.4800   -12.7810   -35.8240 ha         1 T06       0.121500
     45 H20         12.4470   -14.1900   -35.5590 ha         1 T06       0.121500
     46 H21         12.5130   -13.9460   -33.1120 ha         1 T06       0.143500
     47 F23         14.4210   -13.6420   -37.1520 f          1 T06      -0.195000
@<TRIPOS>BOND
     1     1     2 ar  
     2     1     7 1   
     3     1    21 ar  
     4     2     3 ar  
     5     2    26 1   
     6     3     4 ar  
     7     3     8 1   
     8     4     5 ar  
     9     4     6 1   
    10     5    21 ar  
    11     5    23 1   
    12     6     9 1   
    13     6    22 2   
    14     7    10 1   
    15     7    27 1   
    16     7    28 1   
    17     8    24 1   
    18     8    25 1   
    19     9    11 1   
    20     9    12 1   
    21     9    29 1   
    22    10    30 1   
    23    10    31 1   
    24    10    32 1   
    25    11    13 1   
    26    11    33 1   
    27    11    34 1   
    28    12    14 1   
    29    12    35 1   
    30    12    36 1   
    31    13    37 1   
    32    13    38 1   
    33    13    39 1   
    34    14    40 1   
    35    14    41 1   
    36    14    42 1   
    37    15    16 ar  
    38    15    20 ar  
    39    15    43 1   
    40    16    17 ar  
    41    16    44 1   
    42    17    18 ar  
    43    17    47 1   
    44    18    19 ar  
    45    18    45 1   
    46    19    20 ar  
    47    19    46 1   
    48    20    23 1   
    49    22    23 1   
@<TRIPOS>SUBSTRUCTURE
     1 T06         1 TEMP              0 ****  ****    0 ROOT
