@<TRIPOS>MOLECULE
T07
   24    25     1     0     0
SMALL
bcc


@<TRIPOS>ATOM
      1 S            1.2980     0.5800    -0.6780 ss         1 T07      -0.293400
      2 C1          -3.7840     0.4120    -0.0580 ca         1 T07       0.040400
      3 N1           3.9900     0.3370    -0.9650 na         1 T07      -0.472700
      4 C2          -1.7300    -0.7910     0.0470 ca         1 T07       0.048400
      5 N2           4.6890    -0.0290     1.0680 nc         1 T07      -0.410000
      6 CL2         -5.4690     0.4590    -0.4370 cl         1 T07      -0.095400
      7 C3          -1.0670     0.3230     0.5570 ca         1 T07      -0.081300
      8 C4           0.3930     0.3090     0.8820 c3         1 T07       0.067000
      9 N4           3.3220     0.1040     1.0960 nc         1 T07      -0.357000
     10 C5          -3.0820    -0.7650    -0.2580 ca         1 T07      -0.119000
     11 C6          -1.8100     1.4860     0.7370 ca         1 T07      -0.097000
     12 C7          -3.1610     1.5460     0.4390 ca         1 T07      -0.122000
     13 C8           5.0690     0.1100    -0.1720 cd         1 T07       0.610400
     14 C9           2.9260     0.3230    -0.1160 cd         1 T07       0.484800
     15 HN1          3.9800     0.4500    -1.9670 hn         1 T07       0.317700
     16 HN3          6.5700     0.5810    -1.4320 hn         1 T07       0.409300
     17 HN3A         7.0430    -0.0030     0.0560 hn         1 T07       0.409300
     18 H4           0.7130    -0.6380     1.3130 h1         1 T07       0.096200
     19 H4A          0.6390     1.1070     1.5800 h1         1 T07       0.096200
     20 H5          -3.5740    -1.6450    -0.6450 ha         1 T07       0.165000
     21 H6          -1.3180     2.3680     1.1270 ha         1 T07       0.145000
     22 H7          -3.7150     2.4600     0.5950 ha         1 T07       0.154000
     23 N3           6.3340    -0.0240    -0.6600 nv         1 T07      -0.910500
     24 CL1         -0.8670    -2.2660    -0.2160 cl         1 T07      -0.086400
@<TRIPOS>BOND
     1     1     8 1   
     2     1    14 1   
     3     2     6 1   
     4     2    10 ar  
     5     2    12 ar  
     6     3    13 1   
     7     3    14 1   
     8     3    15 1   
     9     4     7 ar  
    10     4    10 ar  
    11     4    24 1   
    12     5     9 1   
    13     5    13 2   
    14     7     8 1   
    15     7    11 ar  
    16     8    18 1   
    17     8    19 1   
    18     9    14 2   
    19    10    20 1   
    20    11    12 ar  
    21    11    21 1   
    22    12    22 1   
    23    13    23 1   
    24    16    23 1   
    25    17    23 1   
@<TRIPOS>SUBSTRUCTURE
     1 T07         1 TEMP              0 ****  ****    0 ROOT
