@<TRIPOS>MOLECULE
T07
   24    25     1     0     0
SMALL
No Charge or Current Charge


@<TRIPOS>ATOM
      1 S            1.3810     0.3990    -0.6910 ss         1 T07      -0.341300
      2 C1          -3.8630     0.4860    -0.0480 ca         1 T07       0.132000
      3 N1           4.0810     0.3460    -0.9570 na         1 T07      -0.523000
      4 C2          -1.8420    -0.8630     0.0740 ca         1 T07       0.140000
      5 N2           4.8000    -0.0350     1.1030 nc         1 T07      -0.410000
      6 Cl2         -5.5780     0.6270    -0.4080 cl         1 T07      -0.187000
      7 C3          -1.1110     0.2600     0.5290 ca         1 T07      -0.081300
      8 C4           0.3780     0.1670     0.8440 c3         1 T07       0.114900
      9 N4           3.4130     0.0130     1.1410 nc         1 T07      -0.357000
     10 C5          -3.2120    -0.7460    -0.2120 ca         1 T07      -0.101000
     11 C6          -1.7750     1.4940     0.6870 ca         1 T07      -0.079000
     12 C7          -3.1460     1.6060     0.4000 ca         1 T07      -0.104000
     13 C8           5.1370     0.1660    -0.1530 cd         1 T07       0.610400
     14 C9           3.0330     0.2400    -0.1050 cd         1 T07       0.484800
     15 HN1          4.0660     0.5050    -1.9490 hn         1 T07       0.368000
     16 HN3          6.5490     0.6380    -1.5170 hn         1 T07       0.464500
     17 HN3A         7.1330     0.2720     0.0660 hn         1 T07       0.464500
     18 H4           0.6160    -0.8050     1.2950 h1         1 T07       0.096200
     19 H4A          0.6550     0.9420     1.5710 h1         1 T07       0.096200
     20 H5          -3.7690    -1.6110    -0.5610 ha         1 T07       0.147000
     21 H6          -1.2270     2.3700     1.0310 ha         1 T07       0.127000
     22 H7          -3.6530     2.5600     0.5230 ha         1 T07       0.136000
     23 N3           6.3880     0.1960    -0.6190 nv         1 T07      -1.020900
     24 Cl1         -1.0660    -2.4310    -0.1530 cl         1 T07      -0.178000
@<TRIPOS>BOND
     1     1     8 1   
     2     1    14 1   
     3     2     6 1   
     4     2    10 ar  
     5     2    12 ar  
     6     3    13 1   
     7     3    14 1   
     8     3    15 1   
     9     4     7 ar  
    10     4    10 ar  
    11     4    24 1   
    12     5     9 1   
    13     5    13 2   
    14     7     8 1   
    15     7    11 ar  
    16     8    18 1   
    17     8    19 1   
    18     9    14 2   
    19    10    20 1   
    20    11    12 ar  
    21    11    21 1   
    22    12    22 1   
    23    13    23 1   
    24    16    23 1   
    25    17    23 1   
@<TRIPOS>SUBSTRUCTURE
     1 T07         1 TEMP              0 ****  ****    0 ROOT
