@<TRIPOS>MOLECULE
T08
   69    70     1     0     0
SMALL
abcg2


@<TRIPOS>ATOM
      1 O05         -6.6680    -0.6060    -1.5670 oh         1 T08      -0.641000
      2 C20         -6.0650    -1.3100    -0.5050 c3         1 T08       0.173300
      3 C21         -7.0930    -1.9750     0.4410 c3         1 T08      -0.075000
      4 C24         -8.0720    -2.7980    -0.4010 c3         1 T08      -0.085433
      5 C23         -6.3710    -2.9310     1.3970 c3         1 T08      -0.085433
      6 C22         -7.8760    -0.9410     1.2540 c3         1 T08      -0.085433
      7 C19         -5.0620    -0.4220     0.2180 c3         1 T08       0.129600
      8 O04         -4.0400    -0.1010    -0.7040 os         1 T08      -0.336100
      9 C16         -2.9850     0.6270    -0.2830 ca         1 T08       0.138100
     10 C17         -2.8520     1.1510     0.9940 ca         1 T08      -0.203000
     11 C18         -1.7120     1.8780     1.3380 ca         1 T08      -0.076000
     12 C15         -1.9720     0.8370    -1.2350 ca         1 T08      -0.102300
     13 C25         -2.1030     0.2740    -2.6190 c3         1 T08      -0.034800
     14 C14         -0.8550     1.5590    -0.8540 ca         1 T08      -0.071000
     15 C13         -0.6920     2.0930     0.4280 ca         1 T08      -0.104300
     16 C10          0.5740     2.8840     0.7480 c3         1 T08       0.062600
     17 C11          0.5540     4.1710    -0.0870 c3         1 T08      -0.082100
     18 C12          0.6480     3.2880     2.2260 c3         1 T08      -0.082100
     19 C7           1.7920     2.0130     0.4450 ca         1 T08      -0.103300
     20 C6           2.8970     2.4720    -0.2680 ca         1 T08      -0.077000
     21 C5           4.0250     1.6910    -0.4980 ca         1 T08      -0.103300
     22 C5A          5.1920     2.2280    -1.2730 c3         1 T08      -0.034800
     23 C8           1.8480     0.7120     0.9330 ca         1 T08      -0.069000
     24 C9           2.9560    -0.0970     0.7250 ca         1 T08      -0.197000
     25 C4           4.0480     0.3880     0.0120 ca         1 T08       0.135100
     26 O03          5.1660    -0.3280    -0.2390 os         1 T08      -0.330100
     27 C3           5.2360    -1.6590     0.2230 c3         1 T08       0.127600
     28 C2           6.5810    -2.2340    -0.1900 c3         1 T08       0.166300
     29 O02          7.6580    -1.5080     0.3510 oh         1 T08      -0.623000
     30 C1           6.6300    -3.7110     0.1710 c3         1 T08       0.129600
     31 O01          7.8300    -4.2570    -0.3170 oh         1 T08      -0.641000
     32 H1          -7.1600     0.1410    -1.2080 ho         1 T08       0.437000
     33 H2          -5.5020    -2.1210    -0.9810 h1         1 T08       0.085700
     34 H3          -7.5490    -3.5320    -1.0180 hc         1 T08       0.036589
     35 H4          -8.7570    -3.3440     0.2510 hc         1 T08       0.036589
     36 H5          -8.6730    -2.1730    -1.0610 hc         1 T08       0.036589
     37 H6          -5.7330    -2.4150     2.1160 hc         1 T08       0.036589
     38 H7          -7.0990    -3.5050     1.9730 hc         1 T08       0.036589
     39 H8          -5.7480    -3.6440     0.8530 hc         1 T08       0.036589
     40 H9          -8.4390    -0.2520     0.6200 hc         1 T08       0.036589
     41 H10         -8.6030    -1.4420     1.8970 hc         1 T08       0.036589
     42 H11         -7.2290    -0.3470     1.9020 hc         1 T08       0.036589
     43 H12         -5.5500     0.4920     0.5820 h1         1 T08       0.036700
     44 H13         -4.6430    -0.9360     1.0880 h1         1 T08       0.036700
     45 H14         -3.6180     1.0040     1.7430 ha         1 T08       0.112000
     46 H15         -1.6470     2.2630     2.3470 ha         1 T08       0.110000
     47 H16         -3.0060     0.6290    -3.1180 hc         1 T08       0.043367
     48 H17         -1.2490     0.5580    -3.2330 hc         1 T08       0.043367
     49 H18         -2.1560    -0.8160    -2.6090 hc         1 T08       0.043367
     50 H19         -0.0690     1.7010    -1.5890 ha         1 T08       0.118000
     51 H20         -0.3510     4.7380     0.1330 hc         1 T08       0.037367
     52 H21          1.4060     4.8140     0.1410 hc         1 T08       0.037367
     53 H22          0.5640     3.9680    -1.1590 hc         1 T08       0.037367
     54 H23          0.6100     2.4240     2.8900 hc         1 T08       0.037367
     55 H24          1.5850     3.8120     2.4180 hc         1 T08       0.037367
     56 H25         -0.1670     3.9620     2.4990 hc         1 T08       0.037367
     57 H26          2.9000     3.4770    -0.6720 ha         1 T08       0.114000
     58 H27          6.1000     2.2580    -0.6690 hc         1 T08       0.043700
     59 H28          5.4160     1.6180    -2.1500 hc         1 T08       0.043700
     60 H29          4.9900     3.2410    -1.6190 hc         1 T08       0.043700
     61 H30          1.0080     0.3020     1.4800 ha         1 T08       0.115000
     62 H31          2.9460    -1.1030     1.1220 ha         1 T08       0.112000
     63 H32          5.1250    -1.7010     1.3150 h1         1 T08       0.034700
     64 H33          4.4290    -2.2610    -0.2120 h1         1 T08       0.034700
     65 H34          6.6750    -2.1420    -1.2770 h1         1 T08       0.099700
     66 H35          7.6400    -1.5990     1.3100 ho         1 T08       0.435000
     67 H36          6.5490    -3.8200     1.2630 h1         1 T08       0.019700
     68 H37          5.7520    -4.2080    -0.2610 h1         1 T08       0.019700
     69 H38          7.8510    -5.1880    -0.0810 ho         1 T08       0.444000
@<TRIPOS>BOND
     1     1     2 1   
     2     1    32 1   
     3     2     3 1   
     4     2     7 1   
     5     2    33 1   
     6     3     4 1   
     7     3     5 1   
     8     3     6 1   
     9     4    34 1   
    10     4    35 1   
    11     4    36 1   
    12     5    37 1   
    13     5    38 1   
    14     5    39 1   
    15     6    40 1   
    16     6    41 1   
    17     6    42 1   
    18     7     8 1   
    19     7    43 1   
    20     7    44 1   
    21     8     9 1   
    22     9    10 ar  
    23     9    12 ar  
    24    10    11 ar  
    25    10    45 1   
    26    11    15 ar  
    27    11    46 1   
    28    12    13 1   
    29    12    14 ar  
    30    13    47 1   
    31    13    48 1   
    32    13    49 1   
    33    14    15 ar  
    34    14    50 1   
    35    15    16 1   
    36    16    17 1   
    37    16    18 1   
    38    16    19 1   
    39    17    51 1   
    40    17    52 1   
    41    17    53 1   
    42    18    54 1   
    43    18    55 1   
    44    18    56 1   
    45    19    20 ar  
    46    19    23 ar  
    47    20    21 ar  
    48    20    57 1   
    49    21    22 1   
    50    21    25 ar  
    51    22    58 1   
    52    22    59 1   
    53    22    60 1   
    54    23    24 ar  
    55    23    61 1   
    56    24    25 ar  
    57    24    62 1   
    58    25    26 1   
    59    26    27 1   
    60    27    28 1   
    61    27    63 1   
    62    27    64 1   
    63    28    29 1   
    64    28    30 1   
    65    28    65 1   
    66    29    66 1   
    67    30    31 1   
    68    30    67 1   
    69    30    68 1   
    70    31    69 1   
@<TRIPOS>SUBSTRUCTURE
     1 T08         1 TEMP              0 ****  ****    0 ROOT
