@<TRIPOS>MOLECULE
T08
   69    70     1     0     0
SMALL
No Charge or Current Charge


@<TRIPOS>ATOM
      1 O05         -6.4190    -0.9290    -1.6690 oh         1 T08      -0.641000
      2 C20         -6.1220    -1.5340    -0.3970 c3         1 T08       0.173300
      3 C21         -7.4480    -1.8680     0.3850 c3         1 T08      -0.075000
      4 C24         -8.3200    -2.8440    -0.4570 c3         1 T08      -0.085433
      5 C23         -7.1130    -2.5710     1.7310 c3         1 T08      -0.085433
      6 C22         -8.2840    -0.5890     0.6860 c3         1 T08      -0.085433
      7 C19         -5.1100    -0.6260     0.3620 c3         1 T08       0.129600
      8 O04         -4.0120    -0.3410    -0.5270 os         1 T08      -0.336100
      9 C16         -2.9350     0.4390    -0.1480 ca         1 T08       0.138100
     10 C17         -2.8470     1.0180     1.1350 ca         1 T08      -0.203000
     11 C18         -1.7380     1.8040     1.4880 ca         1 T08      -0.076000
     12 C15         -1.9000     0.6570    -1.0790 ca         1 T08      -0.102300
     13 C25         -1.9690     0.0430    -2.4730 c3         1 T08      -0.034800
     14 C14         -0.7930     1.4480    -0.7170 ca         1 T08      -0.071000
     15 C13         -0.6900     2.0300     0.5660 ca         1 T08      -0.104300
     16 C10          0.5570     2.8880     0.8970 c3         1 T08       0.062600
     17 C11          0.4410     4.2020     0.0760 c3         1 T08      -0.082100
     18 C12          0.6510     3.2800     2.3990 c3         1 T08      -0.082100
     19 C7           1.8240     2.0620     0.5590 ca         1 T08      -0.103300
     20 C6           2.8660     2.5490    -0.2660 ca         1 T08      -0.077000
     21 C5           4.0000     1.7610    -0.5480 ca         1 T08      -0.103300
     22 C5A          5.1040     2.3160    -1.4440 c3         1 T08      -0.034800
     23 C8           1.9530     0.7650     1.1000 ca         1 T08      -0.069000
     24 C9           3.0790    -0.0270     0.8250 ca         1 T08      -0.197000
     25 C4           4.1090     0.4650    -0.0020 ca         1 T08       0.135100
     26 O03          5.2330    -0.2850    -0.2980 os         1 T08      -0.330100
     27 C3           5.4300    -1.6170     0.2160 c3         1 T08       0.127600
     28 C2           6.7800    -2.1660    -0.3150 c3         1 T08       0.166300
     29 O02          7.8860    -1.4150     0.2230 oh         1 T08      -0.623000
     30 C1           6.9780    -3.6610     0.0450 c3         1 T08       0.129600
     31 O01          8.2630    -4.1170    -0.4110 oh         1 T08      -0.641000
     32 H1          -5.5810    -0.5060    -1.9580 ho         1 T08       0.437000
     33 H2          -5.6020    -2.4880    -0.5710 h1         1 T08       0.085700
     34 H3          -7.7610    -3.7560    -0.7020 hc         1 T08       0.036589
     35 H4          -9.2220    -3.1410     0.0930 hc         1 T08       0.036589
     36 H5          -8.6450    -2.3820    -1.3970 hc         1 T08       0.036589
     37 H6          -6.5790    -1.9000     2.4150 hc         1 T08       0.036589
     38 H7          -8.0280    -2.8960     2.2420 hc         1 T08       0.036589
     39 H8          -6.4890    -3.4580     1.5660 hc         1 T08       0.036589
     40 H9          -8.5430    -0.0550    -0.2360 hc         1 T08       0.036589
     41 H10         -9.2210    -0.8480     1.1930 hc         1 T08       0.036589
     42 H11         -7.7400     0.1040     1.3390 hc         1 T08       0.036589
     43 H12         -5.6000     0.3050     0.6710 h1         1 T08       0.036700
     44 H13         -4.7480    -1.1460     1.2580 h1         1 T08       0.036700
     45 H14         -3.6290     0.8710     1.8740 ha         1 T08       0.112000
     46 H15         -1.7160     2.2330     2.4860 ha         1 T08       0.110000
     47 H16         -2.8410     0.4160    -3.0230 hc         1 T08       0.043367
     48 H17         -1.0790     0.2770    -3.0690 hc         1 T08       0.043367
     49 H18         -2.0490    -1.0490    -2.4180 hc         1 T08       0.043367
     50 H19          0.0020     1.6100    -1.4430 ha         1 T08       0.118000
     51 H20         -0.5040     4.7120     0.3000 hc         1 T08       0.037367
     52 H21          1.2550     4.8970     0.3160 hc         1 T08       0.037367
     53 H22          0.4630     4.0040    -1.0030 hc         1 T08       0.037367
     54 H23          0.6390     2.3950     3.0450 hc         1 T08       0.037367
     55 H24          1.5840     3.8220     2.5950 hc         1 T08       0.037367
     56 H25         -0.1790     3.9340     2.6930 hc         1 T08       0.037367
     57 H26          2.8140     3.5430    -0.6990 ha         1 T08       0.114000
     58 H27          6.0620     2.3480    -0.9110 hc         1 T08       0.043700
     59 H28          5.2370     1.6920    -2.3350 hc         1 T08       0.043700
     60 H29          4.8830     3.3340    -1.7850 hc         1 T08       0.043700
     61 H30          1.1700     0.3620     1.7390 ha         1 T08       0.115000
     62 H31          3.1310    -1.0190     1.2620 ha         1 T08       0.112000
     63 H32          5.4420    -1.6150     1.3140 h1         1 T08       0.034700
     64 H33          4.6190    -2.2760    -0.1200 h1         1 T08       0.034700
     65 H34          6.7640    -2.0890    -1.4120 h1         1 T08       0.099700
     66 H35          8.6620    -2.0110     0.1260 ho         1 T08       0.435000
     67 H36          6.8930    -3.7900     1.1320 h1         1 T08       0.019700
     68 H37          6.1790    -4.2510    -0.4240 h1         1 T08       0.019700
     69 H38          8.3200    -5.0770    -0.2060 ho         1 T08       0.444000
@<TRIPOS>BOND
     1     1     2 1   
     2     1    32 1   
     3     2     3 1   
     4     2     7 1   
     5     2    33 1   
     6     3     4 1   
     7     3     5 1   
     8     3     6 1   
     9     4    34 1   
    10     4    35 1   
    11     4    36 1   
    12     5    37 1   
    13     5    38 1   
    14     5    39 1   
    15     6    40 1   
    16     6    41 1   
    17     6    42 1   
    18     7     8 1   
    19     7    43 1   
    20     7    44 1   
    21     8     9 1   
    22     9    10 ar  
    23     9    12 ar  
    24    10    11 ar  
    25    10    45 1   
    26    11    15 ar  
    27    11    46 1   
    28    12    13 1   
    29    12    14 ar  
    30    13    47 1   
    31    13    48 1   
    32    13    49 1   
    33    14    15 ar  
    34    14    50 1   
    35    15    16 1   
    36    16    17 1   
    37    16    18 1   
    38    16    19 1   
    39    17    51 1   
    40    17    52 1   
    41    17    53 1   
    42    18    54 1   
    43    18    55 1   
    44    18    56 1   
    45    19    20 ar  
    46    19    23 ar  
    47    20    21 ar  
    48    20    57 1   
    49    21    22 1   
    50    21    25 ar  
    51    22    58 1   
    52    22    59 1   
    53    22    60 1   
    54    23    24 ar  
    55    23    61 1   
    56    24    25 ar  
    57    24    62 1   
    58    25    26 1   
    59    26    27 1   
    60    27    28 1   
    61    27    63 1   
    62    27    64 1   
    63    28    29 1   
    64    28    30 1   
    65    28    65 1   
    66    29    66 1   
    67    30    31 1   
    68    30    67 1   
    69    30    68 1   
    70    31    69 1   
@<TRIPOS>SUBSTRUCTURE
     1 T08         1 TEMP              0 ****  ****    0 ROOT
