@<TRIPOS>MOLECULE
T09
   30    29     1     0     0
SMALL
No Charge or Current Charge


@<TRIPOS>ATOM
      1 C01        132.5760   109.9870   112.6450 c3         1 T09      -0.087100
      2 C02        132.8920   110.5550   111.2490 c3         1 T09      -0.075400
      3 C03        132.1300   111.8630   110.9400 c3         1 T09      -0.078400
      4 C04        132.4480   112.4270   109.5330 c3         1 T09      -0.065400
      5 C05        131.8220   113.8180   109.2160 c3         1 T09      -0.064700
      6 C06        130.2590   113.7850   109.2180 c3         1 T09      -0.049400
      7 CA         129.5300   115.1390   108.9570 c3         1 T09       0.024500
      8 C          127.9680   114.9350   108.7130 c          1 T09       0.727000
      9 C67        132.3970   114.3580   107.8810 c3         1 T09      -0.079100
     10 N          129.9070   116.1580   110.0020 n8         1 T09      -0.990200
     11 O          127.3780   114.0350   109.3010 o          1 T09      -0.734500
     12 OXT        127.4060   115.6960   107.9350 o          1 T09      -0.734500
     13 H011       133.1390   109.0620   112.8180 hc         1 T09       0.026033
     14 H012       132.8470   110.7060   113.4280 hc         1 T09       0.026033
     15 H013       131.5070   109.7590   112.7390 hc         1 T09       0.026033
     16 H021       132.6420   109.8010   110.4920 hc         1 T09       0.027200
     17 H022       133.9720   110.7370   111.1760 hc         1 T09       0.027200
     18 H031       132.3830   112.6150   111.6970 hc         1 T09       0.048200
     19 H032       131.0550   111.6650   111.0280 hc         1 T09       0.048200
     20 H042       132.1240   111.7030   108.7750 hc         1 T09       0.021200
     21 H041       133.5380   112.5060   109.4410 hc         1 T09       0.021200
     22 H051       132.1500   114.5020   110.0080 hc         1 T09       0.040700
     23 H062       129.9040   113.3980   110.1800 hc         1 T09       0.047700
     24 H061       129.9310   113.0650   108.4580 hc         1 T09       0.047700
     25 HA         129.9160   115.5360   108.0100 h1         1 T09      -0.007300
     26 H672       133.4930   114.3240   107.8870 hc         1 T09       0.021033
     27 H671       132.0420   113.7600   107.0330 hc         1 T09       0.021033
     28 H673       132.1080   115.4020   107.7150 hc         1 T09       0.021033
     29 H2         130.9240   116.2840   109.9910 hn         1 T09       0.372000
     30 H          129.5390   117.0750   109.7210 hn         1 T09       0.372000
@<TRIPOS>BOND
     1     1     2 1   
     2     1    13 1   
     3     1    14 1   
     4     1    15 1   
     5     2     3 1   
     6     2    16 1   
     7     2    17 1   
     8     3     4 1   
     9     3    18 1   
    10     3    19 1   
    11     4     5 1   
    12     4    20 1   
    13     4    21 1   
    14     5     6 1   
    15     5     9 1   
    16     5    22 1   
    17     6     7 1   
    18     6    23 1   
    19     6    24 1   
    20     7     8 1   
    21     7    10 1   
    22     7    25 1   
    23     8    11 1   
    24     8    12 1   
    25     9    26 1   
    26     9    27 1   
    27     9    28 1   
    28    10    29 1   
    29    10    30 1   
@<TRIPOS>SUBSTRUCTURE
     1 T09         1 TEMP              0 ****  ****    0 ROOT
