@<TRIPOS>MOLECULE
T09
   30    29     1     0     0
SMALL
abcg2


@<TRIPOS>ATOM
      1 C01        132.5280   110.0100   112.5930 c3         1 T09      -0.087100
      2 C02        132.8700   110.5850   111.2250 c3         1 T09      -0.075400
      3 C03        132.0510   111.8220   110.8820 c3         1 T09      -0.078400
      4 C04        132.4570   112.4580   109.5560 c3         1 T09      -0.065400
      5 C05        131.8430   113.8340   109.2810 c3         1 T09      -0.064700
      6 C06        130.3110   113.7700   109.2840 c3         1 T09      -0.049400
      7 CA         129.5950   115.0490   108.8720 c3         1 T09       0.024500
      8 C          128.0480   114.9390   108.8980 c          1 T09       0.727000
      9 C67        132.3990   114.3830   107.9690 c3         1 T09      -0.079100
     10 N          129.9800   116.1520   109.7550 n8         1 T09      -0.990200
     11 O          127.5310   113.8460   109.1960 o          1 T09      -0.734500
     12 OXT        127.4420   115.9910   108.5990 o          1 T09      -0.734500
     13 H011       133.1290   109.1280   112.8210 hc         1 T09       0.026033
     14 H012       132.7040   110.7420   113.3830 hc         1 T09       0.026033
     15 H013       131.4780   109.7170   112.6470 hc         1 T09       0.026033
     16 H021       132.7080   109.8210   110.4580 hc         1 T09       0.027200
     17 H022       133.9360   110.8300   111.1830 hc         1 T09       0.027200
     18 H031       132.1560   112.5590   111.6870 hc         1 T09       0.048200
     19 H032       130.9930   111.5460   110.8600 hc         1 T09       0.048200
     20 H042       132.2030   111.7790   108.7330 hc         1 T09       0.021200
     21 H041       133.5480   112.5570   109.5380 hc         1 T09       0.021200
     22 H051       132.1680   114.4950   110.0940 hc         1 T09       0.040700
     23 H062       129.9610   113.4930   110.2830 hc         1 T09       0.047700
     24 H061       129.9990   112.9600   108.6170 hc         1 T09       0.047700
     25 HA         129.8550   115.2600   107.8200 h1         1 T09      -0.007300
     26 H672       133.4910   114.3540   107.9680 hc         1 T09       0.021033
     27 H671       132.0540   113.7900   107.1180 hc         1 T09       0.021033
     28 H673       132.1030   115.4170   107.7870 hc         1 T09       0.021033
     29 H2         130.9470   116.4040   109.5900 hn         1 T09       0.372000
     30 H          129.4380   116.9650   109.4890 hn         1 T09       0.372000
@<TRIPOS>BOND
     1     1     2 1   
     2     1    13 1   
     3     1    14 1   
     4     1    15 1   
     5     2     3 1   
     6     2    16 1   
     7     2    17 1   
     8     3     4 1   
     9     3    18 1   
    10     3    19 1   
    11     4     5 1   
    12     4    20 1   
    13     4    21 1   
    14     5     6 1   
    15     5     9 1   
    16     5    22 1   
    17     6     7 1   
    18     6    23 1   
    19     6    24 1   
    20     7     8 1   
    21     7    10 1   
    22     7    25 1   
    23     8    11 1   
    24     8    12 1   
    25     9    26 1   
    26     9    27 1   
    27     9    28 1   
    28    10    29 1   
    29    10    30 1   
@<TRIPOS>SUBSTRUCTURE
     1 T09         1 TEMP              0 ****  ****    0 ROOT
