@<TRIPOS>MOLECULE
T0A
   22    23     1     0     0
SMALL
abcg2


@<TRIPOS>ATOM
      1 NAH          1.9010    -0.6900    -0.0370 ns         1 T0A      -0.445400
      2 CAL          0.6930    -1.3950    -0.0890 c          1 T0A       0.598200
      3 OAB          0.7310    -2.6260    -0.1270 o          1 T0A      -0.577000
      4 CAK         -0.4610    -0.5800    -0.0930 cc         1 T0A      -0.414400
      5 CAE         -1.8300    -1.1970    -0.1190 c6         1 T0A       0.019800
      6 CAC         -2.8700    -0.2140     0.4090 c6         1 T0A      -0.094400
      7 CAD         -2.7040     1.1450    -0.2520 c6         1 T0A       0.233800
      8 NAG         -1.3550     1.6250    -0.0590 nu         1 T0A      -0.816200
      9 CAJ         -0.2930     0.7990    -0.0550 cd         1 T0A       0.475600
     10 NAF          0.9120     1.4190     0.0040 nd         1 T0A      -0.775300
     11 CAI          1.9730     0.6590     0.0080 cc         1 T0A       0.747800
     12 NAA          3.1950     1.2160     0.0170 nv         1 T0A      -1.047200
     13 H1           2.7500    -1.2380    -0.0480 hn         1 T0A       0.322500
     14 H3          -2.1050    -1.5050    -1.1340 hc         1 T0A       0.049200
     15 H4          -1.8430    -2.1070     0.4850 hc         1 T0A       0.049200
     16 H5          -3.8780    -0.5850     0.2210 hc         1 T0A       0.049700
     17 H6          -2.7620    -0.1020     1.4910 hc         1 T0A       0.049700
     18 H7          -2.9440     1.0690    -1.3190 h1         1 T0A       0.040200
     19 H8          -3.3910     1.8730     0.1800 h1         1 T0A       0.040200
     20 H9           4.0060     0.6680     0.2500 hn         1 T0A       0.497500
     21 H10          3.2540     2.2020     0.2060 hn         1 T0A       0.497500
     22 H2          -1.1710     2.6120    -0.1160 hn         1 T0A       0.501000
@<TRIPOS>BOND
     1     1     2 1   
     2     1    11 1   
     3     1    13 1   
     4     2     3 2   
     5     2     4 1   
     6     4     5 1   
     7     4     9 2   
     8     5     6 1   
     9     5    14 1   
    10     5    15 1   
    11     6     7 1   
    12     6    16 1   
    13     6    17 1   
    14     7     8 1   
    15     7    18 1   
    16     7    19 1   
    17     8     9 1   
    18     8    22 1   
    19     9    10 1   
    20    10    11 2   
    21    11    12 1   
    22    12    20 1   
    23    12    21 1   
@<TRIPOS>SUBSTRUCTURE
     1 T0A         1 TEMP              0 ****  ****    0 ROOT
