@<TRIPOS>MOLECULE
T0A
   22    23     1     0     0
SMALL
No Charge or Current Charge


@<TRIPOS>ATOM
      1 NAH          1.9000    -0.7130    -0.0840 ns         1 T0A      -0.445400
      2 CAL          0.7560    -1.4130    -0.1010 c          1 T0A       0.598200
      3 OAB          0.7410    -2.6320    -0.1470 o          1 T0A      -0.577000
      4 CAK         -0.4190    -0.5510    -0.0630 cc         1 T0A      -0.414400
      5 CAE         -1.7900    -1.2070    -0.0910 c6         1 T0A       0.019800
      6 CAC         -2.8690    -0.2120     0.4100 c6         1 T0A      -0.094400
      7 CAD         -2.6980     1.1840    -0.2370 c6         1 T0A       0.233800
      8 NAG         -1.3250     1.6600    -0.0080 nu         1 T0A      -0.816200
      9 CAJ         -0.2840     0.8140    -0.0310 cd         1 T0A       0.475600
     10 NAF          0.9290     1.4490    -0.0270 nd         1 T0A      -0.775300
     11 CAI          1.9360     0.6240    -0.0500 cc         1 T0A       0.747800
     12 NAA          3.1320     1.1770    -0.0380 nv         1 T0A      -1.047200
     13 H1           2.7580    -1.2350    -0.1310 hn         1 T0A       0.322500
     14 H3          -2.0340    -1.5240    -1.1150 hc         1 T0A       0.049200
     15 H4          -1.8200    -2.1140     0.5290 hc         1 T0A       0.049200
     16 H5          -3.8720    -0.6050     0.1990 hc         1 T0A       0.049700
     17 H6          -2.7950    -0.1140     1.5020 hc         1 T0A       0.049700
     18 H7          -2.9000     1.1160    -1.3160 h1         1 T0A       0.040200
     19 H8          -3.4280     1.8840     0.1960 h1         1 T0A       0.040200
     20 H9           3.8600     0.6600     0.4380 hn         1 T0A       0.497500
     21 H10          3.1070     2.1680     0.1670 hn         1 T0A       0.497500
     22 H2          -1.0750     2.6320    -0.1770 hn         1 T0A       0.501000
@<TRIPOS>BOND
     1     1     2 1   
     2     1    11 1   
     3     1    13 1   
     4     2     3 2   
     5     2     4 1   
     6     4     5 1   
     7     4     9 2   
     8     5     6 1   
     9     5    14 1   
    10     5    15 1   
    11     6     7 1   
    12     6    16 1   
    13     6    17 1   
    14     7     8 1   
    15     7    18 1   
    16     7    19 1   
    17     8     9 1   
    18     8    22 1   
    19     9    10 1   
    20    10    11 2   
    21    11    12 1   
    22    12    20 1   
    23    12    21 1   
@<TRIPOS>SUBSTRUCTURE
     1 T0A         1 TEMP              0 ****  ****    0 ROOT
