@<TRIPOS>MOLECULE
T0B
   59    63     1     0     0
SMALL
No Charge or Current Charge


@<TRIPOS>ATOM
      1 O1           6.4520    25.7180   -13.3980 o          1 T0B      -0.595100
      2 C1           5.4800    26.2080   -13.9650 c          1 T0B       0.543600
      3 N1           4.1650    25.8090   -13.5710 n          1 T0B      -0.402800
      4 C2           3.9580    25.0930   -12.2800 c6         1 T0B       0.081000
      5 C3           3.0170    25.8800   -11.3220 c6         1 T0B       0.223800
      6 N2           1.7350    26.3430   -11.9560 nh         1 T0B      -0.780300
      7 C4           0.7180    26.9670   -11.1870 ca         1 T0B       0.434900
      8 N3          -0.4450    27.2440   -11.8010 nb         1 T0B      -0.347000
      9 C5          -1.3850    27.8300   -11.0610 ca         1 T0B       0.438900
     10 N4          -2.5380    28.0730   -11.7360 nv         1 T0B      -1.077900
     11 C6          -1.1940    28.1530    -9.7020 ca         1 T0B      -0.223000
     12 C7          -2.1830    28.7790    -8.9080 ca         1 T0B      -0.130000
     13 C8          -1.9230    29.0750    -7.5510 ca         1 T0B       0.087100
     14 O2          -2.8670    29.6880    -6.7400 os         1 T0B      -0.319100
     15 C9          -4.1700    30.0670    -7.2170 c3         1 T0B       0.145900
     16 C10         -0.6670    28.7400    -6.9920 ca         1 T0B       0.168100
     17 O3          -0.4350    29.0400    -5.6590 os         1 T0B      -0.318100
     18 C11          0.8090    28.7390    -5.0030 c3         1 T0B       0.143900
     19 C12          0.3140    28.1180    -7.7950 ca         1 T0B      -0.206000
     20 C13          0.0600    27.8230    -9.1440 ca         1 T0B       0.119000
     21 N5           1.0070    27.2310    -9.8960 nb         1 T0B      -0.291000
     22 C14          1.5580    25.9930   -13.4050 c6         1 T0B       0.240500
     23 C15          2.8860    26.2320   -14.2410 c6         1 T0B       0.124700
     24 C16          2.7390    25.6030   -15.6640 c6         1 T0B      -0.090400
     25 C17          2.2480    24.1380   -15.6420 c6         1 T0B      -0.076400
     26 C18          0.8690    24.0470   -14.9620 c6         1 T0B      -0.073400
     27 C19          0.9510    24.5560   -13.5090 c6         1 T0B      -0.091400
     28 C20          5.6800    27.2240   -15.0600 cc         1 T0B       0.062500
     29 C21          6.9090    27.6210   -15.5260 cd         1 T0B      -0.117000
     30 C22          6.6870    28.5990   -16.5170 cd         1 T0B      -0.200000
     31 C23          5.3350    28.7740   -16.6170 cc         1 T0B       0.136900
     32 O4           4.7000    27.9410   -15.7230 os         1 T0B      -0.228000
     33 H2           3.5590    24.0910   -12.4790 h1         1 T0B       0.065200
     34 H1           4.9090    24.9360   -11.7550 h1         1 T0B       0.065200
     35 H3           2.8020    25.2400   -10.4540 h1         1 T0B       0.060200
     36 H4           3.5720    26.7540   -10.9500 h1         1 T0B       0.060200
     37 H6          -2.6560    27.6200   -12.6380 hn         1 T0B       0.492000
     38 H5          -3.3850    28.2430   -11.2040 hn         1 T0B       0.492000
     39 H7          -3.1420    29.0360    -9.3480 ha         1 T0B       0.107000
     40 H10         -4.7480    30.5330    -6.4100 h1         1 T0B       0.038367
     41 H8          -4.0900    30.7890    -8.0390 h1         1 T0B       0.038367
     42 H9          -4.7270    29.1890    -7.5700 h1         1 T0B       0.038367
     43 H13          0.7720    29.0610    -3.9540 h1         1 T0B       0.044367
     44 H11          1.0090    27.6600    -5.0200 h1         1 T0B       0.044367
     45 H12          1.6430    29.2620    -5.4890 h1         1 T0B       0.044367
     46 H14          1.2850    27.8550    -7.3870 ha         1 T0B       0.139000
     47 H15          0.8240    26.6690   -13.8670 h1         1 T0B       0.086700
     48 H16          2.9330    27.3230   -14.3470 h1         1 T0B       0.069700
     49 H18          3.6890    25.6450   -16.2100 hc         1 T0B       0.051700
     50 H17          2.0320    26.2070   -16.2490 hc         1 T0B       0.051700
     51 H19          2.1810    23.7540   -16.6690 hc         1 T0B       0.045700
     52 H20          2.9750    23.5030   -15.1160 hc         1 T0B       0.045700
     53 H21          0.1320    24.6380   -15.5250 hc         1 T0B       0.041200
     54 H22          0.5120    23.0080   -14.9730 hc         1 T0B       0.041200
     55 H24         -0.0570    24.5600   -13.0750 hc         1 T0B       0.050200
     56 H23          1.5190    23.8360   -12.9110 hc         1 T0B       0.050200
     57 H25          7.8710    27.2470   -15.1900 ha         1 T0B       0.156000
     58 H26          7.4420    29.1230   -17.0930 ha         1 T0B       0.145000
     59 H27          4.7250    29.4160   -17.2380 h4         1 T0B       0.054100
@<TRIPOS>BOND
     1     1     2 2   
     2     2     3 1   
     3     2    28 1   
     4     3     4 1   
     5     3    23 1   
     6     4     5 1   
     7     4    33 1   
     8     4    34 1   
     9     5     6 1   
    10     5    35 1   
    11     5    36 1   
    12     6     7 1   
    13     6    22 1   
    14     7     8 ar  
    15     7    21 ar  
    16     8     9 ar  
    17     9    10 1   
    18     9    11 ar  
    19    10    37 1   
    20    10    38 1   
    21    11    12 ar  
    22    11    20 ar  
    23    12    13 ar  
    24    12    39 1   
    25    13    14 1   
    26    13    16 ar  
    27    14    15 1   
    28    15    40 1   
    29    15    41 1   
    30    15    42 1   
    31    16    17 1   
    32    16    19 ar  
    33    17    18 1   
    34    18    43 1   
    35    18    44 1   
    36    18    45 1   
    37    19    20 ar  
    38    19    46 1   
    39    20    21 ar  
    40    22    23 1   
    41    22    27 1   
    42    22    47 1   
    43    23    24 1   
    44    23    48 1   
    45    24    25 1   
    46    24    49 1   
    47    24    50 1   
    48    25    26 1   
    49    25    51 1   
    50    25    52 1   
    51    26    27 1   
    52    26    53 1   
    53    26    54 1   
    54    27    55 1   
    55    27    56 1   
    56    28    29 2   
    57    28    32 1   
    58    29    30 1   
    59    29    57 1   
    60    30    31 2   
    61    30    58 1   
    62    31    32 1   
    63    31    59 1   
@<TRIPOS>SUBSTRUCTURE
     1 T0B         1 TEMP              0 ****  ****    0 ROOT
