@<TRIPOS>MOLECULE
T0B
   59    63     1     0     0
SMALL
abcg2


@<TRIPOS>ATOM
      1 O1           6.3180    25.4630   -13.5170 o          1 T0B      -0.595100
      2 C1           5.3590    26.0880   -13.9580 c          1 T0B       0.543600
      3 N1           4.1080    25.9510   -13.4610 n          1 T0B      -0.402800
      4 C2           3.9600    25.2900   -12.1780 c6         1 T0B       0.081000
      5 C3           3.0620    26.0970   -11.2590 c6         1 T0B       0.223800
      6 N2           1.8210    26.4620   -11.9140 nh         1 T0B      -0.780300
      7 C4           0.8250    27.0250   -11.1790 ca         1 T0B       0.434900
      8 N3          -0.3360    27.2600   -11.8200 nb         1 T0B      -0.347000
      9 C5          -1.3250    27.8030   -11.1400 ca         1 T0B       0.438900
     10 N4          -2.4620    28.0550   -11.8070 nv         1 T0B      -1.077900
     11 C6          -1.1810    28.1300    -9.7520 ca         1 T0B      -0.223000
     12 C7          -2.1960    28.6990    -8.9510 ca         1 T0B      -0.130000
     13 C8          -1.9740    28.9710    -7.6290 ca         1 T0B       0.087100
     14 O2          -2.8690    29.5030    -6.7750 os         1 T0B      -0.319100
     15 C9          -4.1520    29.8160    -7.2740 c3         1 T0B       0.145900
     16 C10         -0.6950    28.6810    -7.0590 ca         1 T0B       0.168100
     17 O3          -0.5760    28.9870    -5.7630 os         1 T0B      -0.318100
     18 C11          0.6560    28.7260    -5.1190 c3         1 T0B       0.143900
     19 C12          0.2950    28.1290    -7.8320 ca         1 T0B      -0.206000
     20 C13          0.0750    27.8370    -9.1980 ca         1 T0B       0.119000
     21 N5           1.0830    27.2880    -9.9130 nb         1 T0B      -0.291000
     22 C14          1.6280    26.0600   -13.2920 c6         1 T0B       0.240500
     23 C15          2.8750    26.4060   -14.1260 c6         1 T0B       0.124700
     24 C16          2.7130    25.8470   -15.5440 c6         1 T0B      -0.090400
     25 C17          2.3270    24.3750   -15.5740 c6         1 T0B      -0.076400
     26 C18          1.0050    24.1620   -14.8530 c6         1 T0B      -0.073400
     27 C19          1.1120    24.6200   -13.4050 c6         1 T0B      -0.091400
     28 C20          5.6290    27.0280   -15.0640 cc         1 T0B       0.062500
     29 C21          6.6360    26.9830   -15.9760 cd         1 T0B      -0.117000
     30 C22          6.4900    28.1390   -16.7900 cd         1 T0B      -0.200000
     31 C23          5.4160    28.8050   -16.3000 cc         1 T0B       0.136900
     32 O4           4.8910    28.1430   -15.2570 os         1 T0B      -0.228000
     33 H2           3.5970    24.2680   -12.3010 h1         1 T0B       0.065200
     34 H1           4.9340    25.2110   -11.7030 h1         1 T0B       0.065200
     35 H3           2.8700    25.5060   -10.3600 h1         1 T0B       0.060200
     36 H4           3.5980    26.9950   -10.9360 h1         1 T0B       0.060200
     37 H6          -2.5540    27.7100   -12.7480 hn         1 T0B       0.492000
     38 H5          -3.3100    28.3170   -11.3390 hn         1 T0B       0.492000
     39 H7          -3.1630    28.9220    -9.3820 ha         1 T0B       0.107000
     40 H10         -4.7150    30.2350    -6.4440 h1         1 T0B       0.038367
     41 H8          -4.1070    30.5550    -8.0790 h1         1 T0B       0.038367
     42 H9          -4.6750    28.9290    -7.6430 h1         1 T0B       0.038367
     43 H13          0.5340    29.0350    -4.0840 h1         1 T0B       0.044367
     44 H11          0.9100    27.6630    -5.1460 h1         1 T0B       0.044367
     45 H12          1.4750    29.2950    -5.5660 h1         1 T0B       0.044367
     46 H14          1.2700    27.8980    -7.4240 ha         1 T0B       0.139000
     47 H15          0.8490    26.7000   -13.7080 h1         1 T0B       0.086700
     48 H16          2.8890    27.4950   -14.1780 h1         1 T0B       0.069700
     49 H18          3.6120    26.0130   -16.1370 hc         1 T0B       0.051700
     50 H17          1.9250    26.4310   -16.0310 hc         1 T0B       0.051700
     51 H19          2.2560    24.0420   -16.6120 hc         1 T0B       0.045700
     52 H20          3.1100    23.7670   -15.1090 hc         1 T0B       0.045700
     53 H21          0.2210    24.7300   -15.3660 hc         1 T0B       0.041200
     54 H22          0.7040    23.1130   -14.8890 hc         1 T0B       0.041200
     55 H24          0.1330    24.5850   -12.9210 hc         1 T0B       0.050200
     56 H23          1.7470    23.9230   -12.8560 hc         1 T0B       0.050200
     57 H25          7.3850    26.2130   -16.0640 ha         1 T0B       0.156000
     58 H26          7.1040    28.4370   -17.6250 ha         1 T0B       0.145000
     59 H27          4.9360    29.7290   -16.5780 h4         1 T0B       0.054100
@<TRIPOS>BOND
     1     1     2 2   
     2     2     3 1   
     3     2    28 1   
     4     3     4 1   
     5     3    23 1   
     6     4     5 1   
     7     4    33 1   
     8     4    34 1   
     9     5     6 1   
    10     5    35 1   
    11     5    36 1   
    12     6     7 1   
    13     6    22 1   
    14     7     8 ar  
    15     7    21 ar  
    16     8     9 ar  
    17     9    10 1   
    18     9    11 ar  
    19    10    37 1   
    20    10    38 1   
    21    11    12 ar  
    22    11    20 ar  
    23    12    13 ar  
    24    12    39 1   
    25    13    14 1   
    26    13    16 ar  
    27    14    15 1   
    28    15    40 1   
    29    15    41 1   
    30    15    42 1   
    31    16    17 1   
    32    16    19 ar  
    33    17    18 1   
    34    18    43 1   
    35    18    44 1   
    36    18    45 1   
    37    19    20 ar  
    38    19    46 1   
    39    20    21 ar  
    40    22    23 1   
    41    22    27 1   
    42    22    47 1   
    43    23    24 1   
    44    23    48 1   
    45    24    25 1   
    46    24    49 1   
    47    24    50 1   
    48    25    26 1   
    49    25    51 1   
    50    25    52 1   
    51    26    27 1   
    52    26    53 1   
    53    26    54 1   
    54    27    55 1   
    55    27    56 1   
    56    28    29 2   
    57    28    32 1   
    58    29    30 1   
    59    29    57 1   
    60    30    31 2   
    61    30    58 1   
    62    31    32 1   
    63    31    59 1   
@<TRIPOS>SUBSTRUCTURE
     1 T0B         1 TEMP              0 ****  ****    0 ROOT
