@<TRIPOS>MOLECULE
T0C
   51    55     1     0     0
SMALL
abcg2


@<TRIPOS>ATOM
      1 CAA         -4.1430    -8.1590    15.0290 ca         1 T0C      -0.035800
      2 CAB         -2.7500    -8.3300    14.9890 ca         1 T0C      -0.088000
      3 CAC         -1.8960    -7.2610    15.2160 ca         1 T0C      -0.114000
      4 CAD         -2.4110    -5.9980    15.4930 ca         1 T0C      -0.098000
      5 CAE         -3.7910    -5.8140    15.5380 ca         1 T0C      -0.114000
      6 CAF         -4.6490    -6.8790    15.3070 ca         1 T0C      -0.088000
      7 CAG         -5.0330    -9.2850    14.7880 ce         1 T0C      -0.098400
      8 CAH         -6.3630    -9.3070    14.5780 cf         1 T0C      -0.008100
      9 CAI         -6.8130   -10.6850    14.3590 c          1 T0C       0.622300
     10 CAK         -4.5490   -10.7160    14.7350 c5         1 T0C       0.263800
     11 CAM         -3.9080   -11.2330    15.9930 ca         1 T0C      -0.142300
     12 CAO         -2.7600   -12.0120    15.9240 ca         1 T0C      -0.043000
     13 CAP         -2.1540   -12.5150    17.0730 ca         1 T0C      -0.172000
     14 CAQ         -2.7150   -12.2350    18.3180 ca         1 T0C       0.160100
     15 CAR         -3.8730   -11.4530    18.3990 ca         1 T0C      -0.172000
     16 CAS         -4.4570   -10.9570    17.2490 ca         1 T0C      -0.043000
     17 CAU         -1.0220   -13.4500    19.4860 c3         1 T0C       0.209900
     18 CAV         -0.6320   -13.8170    20.8920 ca         1 T0C      -0.085300
     19 CAW          0.5440   -14.6010    21.0910 ca         1 T0C      -0.026000
     20 CAX          0.9220   -14.9570    22.4230 ca         1 T0C      -0.038000
     21 CAY          0.1250   -14.5240    23.5110 ca         1 T0C      -0.093000
     22 CAZ         -0.9980   -13.7740    23.2900 ca         1 T0C      -0.109000
     23 CBA         -1.3760   -13.4200    21.9760 ca         1 T0C      -0.077000
     24 CBB          1.3600   -15.0460    20.0200 ca         1 T0C      -0.110000
     25 CBC          2.4850   -15.8000    20.2520 ca         1 T0C      -0.101000
     26 CBD          2.8540   -16.1500    21.5670 ca         1 T0C      -0.109000
     27 CBE          2.0870   -15.7350    22.6270 ca         1 T0C      -0.093000
     28 OAJ         -5.7530   -11.5060    14.4450 os         1 T0C      -0.406100
     29 OAL         -7.2430    -8.2930    14.5320 oh         1 T0C      -0.502100
     30 OAN         -7.9430   -11.0600    14.1280 o          1 T0C      -0.496000
     31 OAT         -2.2120   -12.6700    19.5030 os         1 T0C      -0.350100
     32 H1          -2.3290    -9.3020    14.7740 ha         1 T0C       0.120500
     33 H2          -0.8250    -7.4150    15.1780 ha         1 T0C       0.115000
     34 H3          -1.7440    -5.1650    15.6730 ha         1 T0C       0.115000
     35 H4          -4.2000    -4.8350    15.7550 ha         1 T0C       0.115000
     36 H5          -5.7170    -6.7230    15.3510 ha         1 T0C       0.120500
     37 H6          -3.8810   -10.8780    13.8870 h1         1 T0C       0.088700
     38 H7          -2.3200   -12.2310    14.9580 ha         1 T0C       0.118000
     39 H8          -1.2600   -13.1130    16.9820 ha         1 T0C       0.126000
     40 H9          -4.2940   -11.2410    19.3730 ha         1 T0C       0.126000
     41 H10         -5.3470   -10.3450    17.3270 ha         1 T0C       0.118000
     42 H11         -1.1850   -14.3540    18.8890 h1         1 T0C       0.046700
     43 H12         -0.2190   -12.8800    19.0080 h1         1 T0C       0.046700
     44 H13          0.4210   -14.7990    24.5170 ha         1 T0C       0.115000
     45 H14         -1.6070   -13.4430    24.1220 ha         1 T0C       0.116000
     46 H15         -2.2660   -12.8270    21.8240 ha         1 T0C       0.130000
     47 H16          1.1000   -14.7920    19.0020 ha         1 T0C       0.108000
     48 H17          3.0930   -16.1290    19.4190 ha         1 T0C       0.113000
     49 H18          3.7420   -16.7450    21.7360 ha         1 T0C       0.115000
     50 H19          2.3620   -15.9970    23.6410 ha         1 T0C       0.114000
     51 H20         -8.1220    -8.6570    14.3370 ho         1 T0C       0.488000
@<TRIPOS>BOND
     1     1     2 ar  
     2     1     6 ar  
     3     1     7 1   
     4     2     3 ar  
     5     2    32 1   
     6     3     4 ar  
     7     3    33 1   
     8     4     5 ar  
     9     4    34 1   
    10     5     6 ar  
    11     5    35 1   
    12     6    36 1   
    13     7     8 2   
    14     7    10 1   
    15     8     9 1   
    16     8    29 1   
    17     9    28 1   
    18     9    30 2   
    19    10    11 1   
    20    10    28 1   
    21    10    37 1   
    22    11    12 ar  
    23    11    16 ar  
    24    12    13 ar  
    25    12    38 1   
    26    13    14 ar  
    27    13    39 1   
    28    14    15 ar  
    29    14    31 1   
    30    15    16 ar  
    31    15    40 1   
    32    16    41 1   
    33    17    18 1   
    34    17    31 1   
    35    17    42 1   
    36    17    43 1   
    37    18    19 ar  
    38    18    23 ar  
    39    19    20 ar  
    40    19    24 ar  
    41    20    21 ar  
    42    20    27 ar  
    43    21    22 ar  
    44    21    44 1   
    45    22    23 ar  
    46    22    45 1   
    47    23    46 1   
    48    24    25 ar  
    49    24    47 1   
    50    25    26 ar  
    51    25    48 1   
    52    26    27 ar  
    53    26    49 1   
    54    27    50 1   
    55    29    51 1   
@<TRIPOS>SUBSTRUCTURE
     1 T0C         1 TEMP              0 ****  ****    0 ROOT
