@<TRIPOS>MOLECULE
T0C
   51    55     1     0     0
SMALL
No Charge or Current Charge


@<TRIPOS>ATOM
      1 CAA         -4.0920    -8.1820    15.0000 ca         1 T0C      -0.035800
      2 CAB         -2.7480    -8.3410    14.5990 ca         1 T0C      -0.088000
      3 CAC         -1.8000    -7.3360    14.8620 ca         1 T0C      -0.114000
      4 CAD         -2.1840    -6.1640    15.5320 ca         1 T0C      -0.098000
      5 CAE         -3.5170    -5.9990    15.9420 ca         1 T0C      -0.114000
      6 CAF         -4.4650    -7.0040    15.6800 ca         1 T0C      -0.088000
      7 CAG         -5.0880    -9.2640    14.7310 ce         1 T0C      -0.098400
      8 CAH         -6.4200    -9.2120    14.5130 cf         1 T0C      -0.008100
      9 CAI         -6.9990   -10.5630    14.3230 c          1 T0C       0.622300
     10 CAK         -4.7330   -10.7560    14.6570 c5         1 T0C       0.263800
     11 CAM         -4.0700   -11.2980    15.9200 ca         1 T0C      -0.142300
     12 CAO         -2.8420   -11.9850    15.8410 ca         1 T0C      -0.043000
     13 CAP         -2.2200   -12.4760    17.0030 ca         1 T0C      -0.172000
     14 CAQ         -2.8250   -12.2830    18.2630 ca         1 T0C       0.160100
     15 CAR         -4.0470   -11.6000    18.3440 ca         1 T0C      -0.172000
     16 CAS         -4.6670   -11.1090    17.1820 ca         1 T0C      -0.043000
     17 CAU         -1.0120   -13.4500    19.4650 c3         1 T0C       0.209900
     18 CAV         -0.6160   -13.8430    20.8980 ca         1 T0C      -0.085300
     19 CAW          0.5930   -14.5520    21.1450 ca         1 T0C      -0.026000
     20 CAX          0.9430   -14.9060    22.4730 ca         1 T0C      -0.038000
     21 CAY          0.1010   -14.5620    23.5440 ca         1 T0C      -0.093000
     22 CAZ         -1.0900   -13.8650    23.3040 ca         1 T0C      -0.109000
     23 CBA         -1.4470   -13.5080    21.9950 ca         1 T0C      -0.077000
     24 CBB          1.4680   -14.9180    20.0940 ca         1 T0C      -0.110000
     25 CBC          2.6570   -15.6170    20.3620 ca         1 T0C      -0.101000
     26 CBD          2.9920   -15.9620    21.6790 ca         1 T0C      -0.109000
     27 CBE          2.1360   -15.6070    22.7330 ca         1 T0C      -0.093000
     28 OAJ         -5.9870   -11.4660    14.4460 os         1 T0C      -0.406100
     29 OAL         -7.1660    -8.0780    14.4630 oh         1 T0C      -0.502100
     30 OAN         -8.1710   -10.8350    14.1030 o          1 T0C      -0.496000
     31 OAT         -2.2640   -12.7400    19.4370 os         1 T0C      -0.350100
     32 H1          -2.4320    -9.2410    14.0780 ha         1 T0C       0.120500
     33 H2          -0.7680    -7.4680    14.5450 ha         1 T0C       0.115000
     34 H3          -1.4500    -5.3870    15.7360 ha         1 T0C       0.115000
     35 H4          -3.8160    -5.0950    16.4680 ha         1 T0C       0.115000
     36 H5          -5.4880    -6.8660    16.0190 ha         1 T0C       0.120500
     37 H6          -4.0940   -10.9450    13.7820 h1         1 T0C       0.088700
     38 H7          -2.3630   -12.1390    14.8760 ha         1 T0C       0.118000
     39 H8          -1.2740   -13.0000    16.9040 ha         1 T0C       0.126000
     40 H9          -4.5160   -11.4490    19.3120 ha         1 T0C       0.126000
     41 H10         -5.6140   -10.5800    17.2650 ha         1 T0C       0.118000
     42 H11         -1.0860   -14.3620    18.8580 h1         1 T0C       0.046700
     43 H12         -0.2170   -12.8210    19.0420 h1         1 T0C       0.046700
     44 H13          0.3680   -14.8340    24.5630 ha         1 T0C       0.115000
     45 H14         -1.7400   -13.5990    24.1350 ha         1 T0C       0.116000
     46 H15         -2.3780   -12.9680    21.8460 ha         1 T0C       0.130000
     47 H16          1.2470   -14.6700    19.0600 ha         1 T0C       0.108000
     48 H17          3.3210   -15.8920    19.5440 ha         1 T0C       0.113000
     49 H18          3.9130   -16.5040    21.8840 ha         1 T0C       0.115000
     50 H19          2.4020   -15.8780    23.7520 ha         1 T0C       0.114000
     51 H20         -8.0990    -8.3350    14.2820 ho         1 T0C       0.488000
@<TRIPOS>BOND
     1     1     2 ar  
     2     1     6 ar  
     3     1     7 1   
     4     2     3 ar  
     5     2    32 1   
     6     3     4 ar  
     7     3    33 1   
     8     4     5 ar  
     9     4    34 1   
    10     5     6 ar  
    11     5    35 1   
    12     6    36 1   
    13     7     8 2   
    14     7    10 1   
    15     8     9 1   
    16     8    29 1   
    17     9    28 1   
    18     9    30 2   
    19    10    11 1   
    20    10    28 1   
    21    10    37 1   
    22    11    12 ar  
    23    11    16 ar  
    24    12    13 ar  
    25    12    38 1   
    26    13    14 ar  
    27    13    39 1   
    28    14    15 ar  
    29    14    31 1   
    30    15    16 ar  
    31    15    40 1   
    32    16    41 1   
    33    17    18 1   
    34    17    31 1   
    35    17    42 1   
    36    17    43 1   
    37    18    19 ar  
    38    18    23 ar  
    39    19    20 ar  
    40    19    24 ar  
    41    20    21 ar  
    42    20    27 ar  
    43    21    22 ar  
    44    21    44 1   
    45    22    23 ar  
    46    22    45 1   
    47    23    46 1   
    48    24    25 ar  
    49    24    47 1   
    50    25    26 ar  
    51    25    48 1   
    52    26    27 ar  
    53    26    49 1   
    54    27    50 1   
    55    29    51 1   
@<TRIPOS>SUBSTRUCTURE
     1 T0C         1 TEMP              0 ****  ****    0 ROOT
