@<TRIPOS>MOLECULE
T0E
   58    62     1     0     0
SMALL
No Charge or Current Charge


@<TRIPOS>ATOM
      1 O            4.2960     1.1550    -1.8980 o          1 T0E      -0.565100
      2 C6           3.4790     0.8320    -1.0470 c          1 T0E       0.622700
      3 N            3.3570     1.5610     0.1150 ns         1 T0E      -0.505900
      4 C7           4.1370     2.7550     0.4340 c3         1 T0E       0.178300
      5 C8           5.5310     2.4190     0.8910 cc         1 T0E      -0.167300
      6 N2           6.5280     1.8530     0.0980 na         1 T0E       0.005800
      7 N1           7.7260     1.6490     0.7690 nc         1 T0E      -0.514800
      8 C10          7.4590     2.0930     1.9840 cd         1 T0E       0.240900
      9 C9           6.1380     2.5690     2.1040 cd         1 T0E      -0.221000
     10 C5           2.5830    -0.3840    -1.1730 ca         1 T0E      -0.194600
     11 C            2.4440    -1.0600    -2.4090 ca         1 T0E       0.224000
     12 F            3.0840    -0.6380    -3.5220 f          1 T0E      -0.156000
     13 C4           1.8630    -0.8830    -0.0550 ca         1 T0E      -0.065000
     14 C3           1.0290    -2.0150    -0.1670 ca         1 T0E      -0.105300
     15 C2           0.9080    -2.6640    -1.4100 ca         1 T0E      -0.060000
     16 C1           1.6140    -2.1850    -2.5220 ca         1 T0E      -0.159000
     17 C11          0.2560    -2.5240     1.0620 c6         1 T0E      -0.011400
     18 C15         -1.2910    -2.4830     0.8600 c6         1 T0E      -0.097700
     19 C14         -2.0120    -3.0440     2.1180 c6         1 T0E       0.154800
     20 N3          -1.5350    -4.4090     2.4570 n7         1 T0E      -0.843400
     21 C13         -0.0740    -4.4610     2.6970 c6         1 T0E       0.147800
     22 C12          0.7020    -3.9570     1.4590 c6         1 T0E      -0.108400
     23 C16         -1.7840    -1.0480     0.5170 c3         1 T0E       0.169600
     24 O1          -3.2030    -1.0780     0.2830 os         1 T0E      -0.346100
     25 C17         -3.9160     0.0560    -0.0450 ca         1 T0E       0.150100
     26 C23         -5.3040    -0.0800    -0.2500 ca         1 T0E      -0.133000
     27 C22         -6.0410     1.0610    -0.5820 ca         1 T0E       0.091100
     28 O3          -7.3770     1.1020    -0.8180 os         1 T0E      -0.341100
     29 C21         -7.6190     2.5310    -1.0760 c5         1 T0E       0.372600
     30 O2          -6.3390     3.2570    -1.0450 os         1 T0E      -0.342100
     31 C20         -5.4510     2.2860    -0.7110 ca         1 T0E       0.013100
     32 C19         -4.0750     2.4630    -0.5180 ca         1 T0E      -0.057000
     33 C18         -3.3010     1.3310    -0.1790 ca         1 T0E      -0.208000
     34 H1           2.6610     1.2530     0.7810 hn         1 T0E       0.321500
     35 H2           4.1850     3.4050    -0.4510 h1         1 T0E       0.061200
     36 H3           3.6190     3.3120     1.2260 h1         1 T0E       0.061200
     37 H4           6.4190     1.5920    -0.8830 hn         1 T0E       0.370000
     38 H5           8.2280     2.0580     2.7460 h4         1 T0E       0.036100
     39 H6           5.6900     2.9810     3.0030 ha         1 T0E       0.138000
     40 H7           1.9510    -0.4070     0.9180 ha         1 T0E       0.117000
     41 H8           0.2690    -3.5370    -1.5180 ha         1 T0E       0.121000
     42 H9           1.5180    -2.6870    -3.4810 ha         1 T0E       0.139000
     43 H10          0.4910    -1.8680     1.9130 hc         1 T0E       0.054700
     44 H11         -1.5580    -3.1130     0.0010 hc         1 T0E       0.062700
     45 H12         -1.8380    -2.3710     2.9720 h1         1 T0E       0.062700
     46 H13         -3.0990    -3.0730     1.9440 h1         1 T0E       0.062700
     47 H14         -1.7540    -5.0310     1.6690 hn         1 T0E       0.406000
     48 H16          0.1800    -3.8390     3.5700 h1         1 T0E       0.056200
     49 H17          0.2290    -5.4930     2.9280 h1         1 T0E       0.056200
     50 H18          0.5460    -4.6530     0.6240 hc         1 T0E       0.051200
     51 H19          1.7790    -3.9660     1.6740 hc         1 T0E       0.051200
     52 H20         -1.5440    -0.3770     1.3530 h1         1 T0E       0.037700
     53 H21         -1.2620    -0.6900    -0.3790 h1         1 T0E       0.037700
     54 H22         -5.7880    -1.0470    -0.1540 ha         1 T0E       0.148000
     55 H23         -8.0850     2.6510    -2.0610 h2         1 T0E       0.065200
     56 H24         -3.6200     3.4450    -0.6270 ha         1 T0E       0.131000
     57 H25         -2.2340     1.4610    -0.0270 ha         1 T0E       0.119000
     58 H15         -8.2790     2.9300    -0.2970 h2         1 T0E       0.065200
@<TRIPOS>BOND
     1     1     2 2   
     2     2     3 1   
     3     2    10 1   
     4     3     4 1   
     5     3    34 1   
     6     4     5 1   
     7     4    35 1   
     8     4    36 1   
     9     5     6 1   
    10     5     9 2   
    11     6     7 1   
    12     6    37 1   
    13     7     8 2   
    14     8     9 1   
    15     8    38 1   
    16     9    39 1   
    17    10    11 ar  
    18    10    13 ar  
    19    11    12 1   
    20    11    16 ar  
    21    13    14 ar  
    22    13    40 1   
    23    14    15 ar  
    24    14    17 1   
    25    15    16 ar  
    26    15    41 1   
    27    16    42 1   
    28    17    18 1   
    29    17    22 1   
    30    17    43 1   
    31    18    19 1   
    32    18    23 1   
    33    18    44 1   
    34    19    20 1   
    35    19    45 1   
    36    19    46 1   
    37    20    21 1   
    38    20    47 1   
    39    21    22 1   
    40    21    48 1   
    41    21    49 1   
    42    22    50 1   
    43    22    51 1   
    44    23    24 1   
    45    23    52 1   
    46    23    53 1   
    47    24    25 1   
    48    25    26 ar  
    49    25    33 ar  
    50    26    27 ar  
    51    26    54 1   
    52    27    28 1   
    53    27    31 ar  
    54    28    29 1   
    55    29    30 1   
    56    29    55 1   
    57    29    58 1   
    58    30    31 1   
    59    31    32 ar  
    60    32    33 ar  
    61    32    56 1   
    62    33    57 1   
@<TRIPOS>SUBSTRUCTURE
     1 T0E         1 TEMP              0 ****  ****    0 ROOT
