@<TRIPOS>MOLECULE
T0E
   58    62     1     0     0
SMALL
bcc


@<TRIPOS>ATOM
      1 O            4.7010     0.4780    -1.8060 o          1 T0E      -0.565100
      2 C6           3.5970     0.5700    -1.2950 c          1 T0E       0.689700
      3 N            3.1990     1.6510    -0.6040 ns         1 T0E      -0.572900
      4 C7           4.0990     2.7390    -0.3130 c3         1 T0E       0.178300
      5 C8           5.1280     2.3530     0.7020 cc         1 T0E      -0.116600
      6 N2           6.3690     2.8700     0.7160 na         1 T0E       0.005400
      7 N1           7.1190     2.4210     1.7190 nc         1 T0E      -0.514800
      8 C10          6.3350     1.5830     2.3720 cd         1 T0E       0.306200
      9 C9           5.0640     1.4980     1.7800 cd         1 T0E      -0.304300
     10 C5           2.5910    -0.5330    -1.3630 ca         1 T0E      -0.194600
     11 C            2.3450    -1.2130    -2.5450 ca         1 T0E       0.188900
     12 F            2.9540    -0.8210    -3.6710 f          1 T0E      -0.120900
     13 C4           1.9170    -0.9540    -0.2170 ca         1 T0E      -0.083000
     14 C3           1.0290    -2.0210    -0.2340 ca         1 T0E      -0.105300
     15 C2           0.8120    -2.6720    -1.4480 ca         1 T0E      -0.078000
     16 C1           1.4590    -2.2700    -2.6050 ca         1 T0E      -0.177000
     17 C11          0.3400    -2.4680     1.0310 c6         1 T0E      -0.011400
     18 C15         -1.1950    -2.4390     0.9270 c6         1 T0E      -0.097700
     19 C14         -1.8060    -2.9430     2.2420 c6         1 T0E       0.154800
     20 N3          -1.3360    -4.2500     2.6590 n7         1 T0E      -0.788200
     21 C13          0.1130    -4.3110     2.7330 c6         1 T0E       0.147800
     22 C12          0.8130    -3.8620     1.4550 c6         1 T0E      -0.108400
     23 C16         -1.6640    -1.0350     0.5890 c3         1 T0E       0.146400
     24 O1          -3.0750    -1.0450     0.4680 os         1 T0E      -0.322900
     25 C17         -3.7090     0.1040     0.1550 ca         1 T0E       0.150100
     26 C23         -5.1100    -0.0000     0.0570 ca         1 T0E      -0.151000
     27 C22         -5.7950     1.1390    -0.2720 ca         1 T0E       0.091100
     28 O3          -7.1320     1.3020    -0.4080 os         1 T0E      -0.317900
     29 C21         -7.3090     2.5950    -0.9750 c5         1 T0E       0.326200
     30 O2          -6.0950     3.3010    -0.7790 os         1 T0E      -0.318900
     31 C20         -5.1600     2.3510    -0.5020 ca         1 T0E       0.013100
     32 C19         -3.8000     2.4660    -0.4070 ca         1 T0E      -0.075000
     33 C18         -3.0680     1.3160    -0.0710 ca         1 T0E      -0.226000
     34 H1           2.2580     1.7020    -0.2510 hn         1 T0E       0.321500
     35 H2           4.5820     3.0890    -1.2270 h1         1 T0E       0.061200
     36 H3           3.4970     3.5660     0.0610 h1         1 T0E       0.061200
     37 H4           6.7580     3.5330     0.0630 hn         1 T0E       0.319700
     38 H5           6.7010     1.0640     3.2440 h4         1 T0E       0.036100
     39 H6           4.2250     0.8970     2.0910 ha         1 T0E       0.156000
     40 H7           2.1080    -0.4470     0.7220 ha         1 T0E       0.135000
     41 H8           0.1240    -3.5070    -1.5040 ha         1 T0E       0.139000
     42 H9           1.2780    -2.7710    -3.5470 ha         1 T0E       0.157000
     43 H10          0.6260    -1.7680     1.8270 hc         1 T0E       0.054700
     44 H11         -1.5060    -3.1140     0.1200 hc         1 T0E       0.062700
     45 H12         -1.5710    -2.2220     3.0350 h1         1 T0E       0.062700
     46 H13         -2.8930    -2.9780     2.1620 h1         1 T0E       0.062700
     47 H14         -1.6610    -4.9450     1.9970 hn         1 T0E       0.350800
     48 H16          0.4410    -3.6770     3.5650 h1         1 T0E       0.056200
     49 H17          0.4100    -5.3310     2.9840 h1         1 T0E       0.056200
     50 H18          0.6100    -4.5820     0.6540 hc         1 T0E       0.051200
     51 H19          1.8960    -3.8530     1.6050 hc         1 T0E       0.051200
     52 H20         -1.3510    -0.3380     1.3780 h1         1 T0E       0.037700
     53 H21         -1.2070    -0.6980    -0.3480 h1         1 T0E       0.037700
     54 H22         -5.6100    -0.9430     0.2370 ha         1 T0E       0.166000
     55 H23         -7.5210     2.5010    -2.0460 h2         1 T0E       0.065200
     56 H24         -3.2930     3.4060    -0.5800 ha         1 T0E       0.149000
     57 H25         -1.9930     1.4020     0.0010 ha         1 T0E       0.137000
     58 H15         -8.1230     3.1110    -0.4670 h2         1 T0E       0.065200
@<TRIPOS>BOND
     1     1     2 2   
     2     2     3 1   
     3     2    10 1   
     4     3     4 1   
     5     3    34 1   
     6     4     5 1   
     7     4    35 1   
     8     4    36 1   
     9     5     6 1   
    10     5     9 2   
    11     6     7 1   
    12     6    37 1   
    13     7     8 2   
    14     8     9 1   
    15     8    38 1   
    16     9    39 1   
    17    10    11 ar  
    18    10    13 ar  
    19    11    12 1   
    20    11    16 ar  
    21    13    14 ar  
    22    13    40 1   
    23    14    15 ar  
    24    14    17 1   
    25    15    16 ar  
    26    15    41 1   
    27    16    42 1   
    28    17    18 1   
    29    17    22 1   
    30    17    43 1   
    31    18    19 1   
    32    18    23 1   
    33    18    44 1   
    34    19    20 1   
    35    19    45 1   
    36    19    46 1   
    37    20    21 1   
    38    20    47 1   
    39    21    22 1   
    40    21    48 1   
    41    21    49 1   
    42    22    50 1   
    43    22    51 1   
    44    23    24 1   
    45    23    52 1   
    46    23    53 1   
    47    24    25 1   
    48    25    26 ar  
    49    25    33 ar  
    50    26    27 ar  
    51    26    54 1   
    52    27    28 1   
    53    27    31 ar  
    54    28    29 1   
    55    29    30 1   
    56    29    55 1   
    57    29    58 1   
    58    30    31 1   
    59    31    32 ar  
    60    32    33 ar  
    61    32    56 1   
    62    33    57 1   
@<TRIPOS>SUBSTRUCTURE
     1 T0E         1 TEMP              0 ****  ****    0 ROOT
