@<TRIPOS>MOLECULE
T0H
   70    72     1     0     0
SMALL
abcg2


@<TRIPOS>ATOM
      1 O2         -36.3460    20.1200    -2.2780 oh         1 T0H      -0.654000
      2 C1         -35.5370    22.1770    -4.3150 c6         1 T0H       0.214500
      3 C2         -36.9710    21.7800    -3.9510 c6         1 T0H      -0.148400
      4 C3         -37.0730    20.3360    -3.4710 c6         1 T0H       0.179300
      5 C4         -36.5060    19.3950    -4.5260 c6         1 T0H      -0.030200
      6 C5         -35.1080    19.7890    -4.9190 ce         1 T0H      -0.072200
      7 C6         -34.0910    18.9110    -4.8770 cf         1 T0H      -0.156000
      8 C7         -32.6990    19.1950    -5.1670 cf         1 T0H      -0.186000
      9 C8         -31.6980    18.3020    -5.2100 c2         1 T0H      -0.083400
     10 C9         -31.8240    16.8170    -4.9850 c6         1 T0H      -0.041200
     11 C10        -34.9760    21.2060    -5.3230 ce         1 T0H      -0.088200
     12 C11        -31.2110    15.9930    -6.1280 c6         1 T0H      -0.071400
     13 C12        -29.7960    16.4430    -6.4960 c6         1 T0H      -0.060400
     14 C13        -29.7580    17.9430    -6.7600 c5         1 T0H       0.001200
     15 C14        -30.2830    18.6840    -5.5080 c5         1 T0H      -0.032500
     16 C15        -29.8670    20.1310    -5.7340 c5         1 T0H      -0.071400
     17 C16        -28.4580    20.0000    -6.3470 c5         1 T0H      -0.031200
     18 C17        -28.3840    18.5730    -6.8800 c2         1 T0H      -0.126500
     19 C18        -30.5560    18.2960    -8.0220 c3         1 T0H      -0.075100
     20 C19        -34.4610    21.5750    -6.4940 c2         1 T0H      -0.283000
     21 C20        -27.3160    17.9750    -7.3240 c1         1 T0H      -0.043800
     22 C22        -26.2520    17.3580    -7.7660 c2         1 T0H      -0.227300
     23 C23        -25.7950    17.3540    -9.2000 c3         1 T0H      -0.035200
     24 C24        -24.4960    18.1400    -9.4180 c3         1 T0H      -0.065400
     25 C25        -23.2540    17.5800    -8.7120 c3         1 T0H      -0.101400
     26 C27        -22.3410    16.6580    -9.5380 c3         1 T0H       0.181000
     27 O1         -35.4720    23.4850    -4.8220 oh         1 T0H      -0.657000
     28 C26        -23.1040    15.4720   -10.1230 c3         1 T0H      -0.099600
     29 C28        -21.6480    17.4330   -10.6520 c3         1 T0H      -0.099600
     30 O3         -21.2930    16.1860    -8.6960 oh         1 T0H      -0.662000
     31 H1         -36.6880    20.7160    -1.6040 ho         1 T0H       0.437000
     32 H2         -34.9190    22.0880    -3.4080 h1         1 T0H       0.047700
     33 H3         -37.3550    22.4580    -3.1800 hc         1 T0H       0.049200
     34 H4         -37.6090    21.9070    -4.8310 hc         1 T0H       0.049200
     35 H5         -38.1350    20.0940    -3.3240 h1         1 T0H       0.032700
     36 H6         -37.1600    19.4480    -5.4030 hc         1 T0H       0.056200
     37 H7         -36.5330    18.3630    -4.1680 hc         1 T0H       0.056200
     38 H8         -34.3390    17.9010    -4.5680 ha         1 T0H       0.170000
     39 H9         -32.4550    20.2350    -5.3540 ha         1 T0H       0.179000
     40 H10        -32.8580    16.5090    -4.8340 hc         1 T0H       0.046200
     41 H11        -31.2900    16.5710    -4.0590 hc         1 T0H       0.046200
     42 H12        -31.8600    16.0560    -7.0050 hc         1 T0H       0.040200
     43 H13        -31.1970    14.9410    -5.8380 hc         1 T0H       0.040200
     44 H14        -29.1110    16.2090    -5.6750 hc         1 T0H       0.044700
     45 H15        -29.4410    15.8850    -7.3680 hc         1 T0H       0.044700
     46 H16        -29.6750    18.3070    -4.6700 hc         1 T0H       0.057700
     47 H17        -30.5450    20.6360    -6.4250 hc         1 T0H       0.048200
     48 H18        -29.8610    20.7120    -4.8110 hc         1 T0H       0.048200
     49 H19        -27.6860    20.1590    -5.5920 hc         1 T0H       0.051700
     50 H20        -28.2830    20.7360    -7.1330 hc         1 T0H       0.051700
     51 H21        -30.4900    19.3560    -8.2720 hc         1 T0H       0.036367
     52 H22        -30.1600    17.7380    -8.8720 hc         1 T0H       0.036367
     53 H23        -31.6150    18.0540    -7.9250 hc         1 T0H       0.036367
     54 H24        -34.3850    22.6100    -6.7960 ha         1 T0H       0.172500
     55 H25        -34.1010    20.8350    -7.1980 ha         1 T0H       0.172500
     56 H26        -25.6380    16.8170    -7.0480 ha         1 T0H       0.180000
     57 H27        -26.5770    17.7830    -9.8290 hc         1 T0H       0.047200
     58 H28        -25.6660    16.3190    -9.5270 hc         1 T0H       0.047200
     59 H29        -24.6680    19.1640    -9.0780 hc         1 T0H       0.042700
     60 H30        -24.3180    18.2180   -10.4940 hc         1 T0H       0.042700
     61 H31        -23.5590    17.0340    -7.8120 hc         1 T0H       0.044700
     62 H32        -22.6360    18.4100    -8.3560 hc         1 T0H       0.044700
     63 H33        -35.7510    24.0890    -4.1270 ho         1 T0H       0.443000
     64 H34        -23.6070    14.8990    -9.3400 hc         1 T0H       0.041033
     65 H35        -23.8640    15.7920   -10.8370 hc         1 T0H       0.041033
     66 H36        -22.4210    14.8020   -10.6470 hc         1 T0H       0.041033
     67 H37        -21.0740    18.2700   -10.2500 hc         1 T0H       0.041033
     68 H38        -20.9650    16.7860   -11.2070 hc         1 T0H       0.041033
     69 H39        -22.3700    17.8330   -11.3620 hc         1 T0H       0.041033
     70 H40        -21.6920    15.6700    -7.9870 ho         1 T0H       0.437000
@<TRIPOS>BOND
     1     1     4 1   
     2     1    31 1   
     3     2     3 1   
     4     2    11 1   
     5     2    27 1   
     6     2    32 1   
     7     3     4 1   
     8     3    33 1   
     9     3    34 1   
    10     4     5 1   
    11     4    35 1   
    12     5     6 1   
    13     5    36 1   
    14     5    37 1   
    15     6     7 2   
    16     6    11 1   
    17     7     8 1   
    18     7    38 1   
    19     8     9 2   
    20     8    39 1   
    21     9    10 1   
    22     9    15 1   
    23    10    12 1   
    24    10    40 1   
    25    10    41 1   
    26    11    20 2   
    27    12    13 1   
    28    12    42 1   
    29    12    43 1   
    30    13    14 1   
    31    13    44 1   
    32    13    45 1   
    33    14    15 1   
    34    14    18 1   
    35    14    19 1   
    36    15    16 1   
    37    15    46 1   
    38    16    17 1   
    39    16    47 1   
    40    16    48 1   
    41    17    18 1   
    42    17    49 1   
    43    17    50 1   
    44    18    21 2   
    45    19    51 1   
    46    19    52 1   
    47    19    53 1   
    48    20    54 1   
    49    20    55 1   
    50    21    22 2   
    51    22    23 1   
    52    22    56 1   
    53    23    24 1   
    54    23    57 1   
    55    23    58 1   
    56    24    25 1   
    57    24    59 1   
    58    24    60 1   
    59    25    26 1   
    60    25    61 1   
    61    25    62 1   
    62    26    28 1   
    63    26    29 1   
    64    26    30 1   
    65    27    63 1   
    66    28    64 1   
    67    28    65 1   
    68    28    66 1   
    69    29    67 1   
    70    29    68 1   
    71    29    69 1   
    72    30    70 1   
@<TRIPOS>SUBSTRUCTURE
     1 T0H         1 TEMP              0 ****  ****    0 ROOT
