@<TRIPOS>MOLECULE
T0H
   70    72     1     0     0
SMALL
No Charge or Current Charge


@<TRIPOS>ATOM
      1 O2         -36.8740    19.8780    -3.1990 oh         1 T0H      -0.654000
      2 C1         -34.7420    22.0500    -3.5160 c6         1 T0H       0.214500
      3 C2         -36.2620    22.1700    -3.7890 c6         1 T0H      -0.148400
      4 C3         -36.8720    20.8300    -4.2690 c6         1 T0H       0.179300
      5 C4         -36.0960    20.2720    -5.4920 c6         1 T0H      -0.030200
      6 C5         -34.5830    20.2060    -5.2340 ce         1 T0H      -0.072200
      7 C6         -33.8710    19.0690    -5.4890 cf         1 T0H      -0.156000
      8 C7         -32.4360    18.8900    -5.2590 cf         1 T0H      -0.186000
      9 C8         -31.6650    17.8360    -5.6430 c2         1 T0H      -0.083400
     10 C9         -32.1810    16.6100    -6.4200 c6         1 T0H      -0.041200
     11 C10        -34.0190    21.4830    -4.7600 ce         1 T0H      -0.088200
     12 C11        -31.2830    16.2350    -7.6380 c6         1 T0H      -0.071400
     13 C12        -29.7590    16.2640    -7.3120 c6         1 T0H      -0.060400
     14 C13        -29.3570    17.6020    -6.6190 c5         1 T0H       0.001200
     15 C14        -30.1750    17.7190    -5.2990 c5         1 T0H      -0.032500
     16 C15        -29.4740    18.9120    -4.5950 c5         1 T0H      -0.071400
     17 C16        -27.9860    18.4730    -4.7830 c5         1 T0H      -0.031200
     18 C17        -27.9350    17.6350    -6.0670 c2         1 T0H      -0.126500
     19 C18        -29.5320    18.7770    -7.6390 c3         1 T0H      -0.075100
     20 C19        -32.9880    22.0980    -5.3880 c2         1 T0H      -0.283000
     21 C20        -26.8620    17.0800    -6.5980 c1         1 T0H      -0.043800
     22 C22        -25.8110    16.5150    -7.1570 c2         1 T0H      -0.227300
     23 C23        -25.8050    15.8450    -8.5180 c3         1 T0H      -0.035200
     24 C24        -26.0630    16.8140    -9.6970 c3         1 T0H      -0.065400
     25 C25        -25.2000    18.1110    -9.7660 c3         1 T0H      -0.101400
     26 C27        -23.6610    17.9830   -10.0090 c3         1 T0H       0.181000
     27 O1         -34.2290    23.3330    -3.1370 oh         1 T0H      -0.657000
     28 C26        -22.8700    17.5380    -8.7540 c3         1 T0H      -0.099600
     29 C28        -23.3320    17.0740   -11.2170 c3         1 T0H      -0.099600
     30 O3         -23.1890    19.2910   -10.3390 oh         1 T0H      -0.662000
     31 H1         -37.4970    20.2180    -2.5210 ho         1 T0H       0.437000
     32 H2         -34.5920    21.3390    -2.6890 h1         1 T0H       0.047700
     33 H3         -36.7850    22.5190    -2.8890 hc         1 T0H       0.049200
     34 H4         -36.4320    22.9330    -4.5610 hc         1 T0H       0.049200
     35 H5         -37.9100    21.0170    -4.5830 h1         1 T0H       0.032700
     36 H6         -36.2790    20.9200    -6.3600 hc         1 T0H       0.056200
     37 H7         -36.4950    19.2850    -5.7630 hc         1 T0H       0.056200
     38 H8         -34.4320    18.2140    -5.8640 ha         1 T0H       0.170000
     39 H9         -31.9650    19.6950    -4.6970 ha         1 T0H       0.179000
     40 H10        -33.2050    16.7460    -6.7810 hc         1 T0H       0.046200
     41 H11        -32.2170    15.7560    -5.7310 hc         1 T0H       0.046200
     42 H12        -31.4960    16.9230    -8.4670 hc         1 T0H       0.040200
     43 H13        -31.5610    15.2380    -8.0050 hc         1 T0H       0.040200
     44 H14        -29.5130    15.4190    -6.6550 hc         1 T0H       0.044700
     45 H15        -29.1780    16.1150    -8.2330 hc         1 T0H       0.044700
     46 H16        -30.0370    16.8180    -4.6850 hc         1 T0H       0.057700
     47 H17        -29.6770    19.8760    -5.0760 hc         1 T0H       0.048200
     48 H18        -29.7530    19.0060    -3.5400 hc         1 T0H       0.048200
     49 H19        -27.6470    17.8720    -3.9300 hc         1 T0H       0.051700
     50 H20        -27.3180    19.3400    -4.8410 hc         1 T0H       0.051700
     51 H21        -29.1100    19.7160    -7.2640 hc         1 T0H       0.036367
     52 H22        -29.0130    18.5580    -8.5790 hc         1 T0H       0.036367
     53 H23        -30.5830    18.9720    -7.8800 hc         1 T0H       0.036367
     54 H24        -32.5780    23.0480    -5.0470 ha         1 T0H       0.172500
     55 H25        -32.5260    21.6650    -6.2750 ha         1 T0H       0.172500
     56 H26        -24.8680    16.4670    -6.6110 ha         1 T0H       0.180000
     57 H27        -26.5790    15.0680    -8.5430 hc         1 T0H       0.047200
     58 H28        -24.8630    15.3110    -8.6820 hc         1 T0H       0.047200
     59 H29        -27.1140    17.1250    -9.6460 hc         1 T0H       0.042700
     60 H30        -25.9710    16.2600   -10.6390 hc         1 T0H       0.042700
     61 H31        -25.3720    18.6980    -8.8550 hc         1 T0H       0.044700
     62 H32        -25.6180    18.7150   -10.5820 hc         1 T0H       0.044700
     63 H33        -34.7230    23.6010    -2.3320 ho         1 T0H       0.443000
     64 H34        -23.1730    18.1140    -7.8710 hc         1 T0H       0.041033
     65 H35        -23.0160    16.4750    -8.5370 hc         1 T0H       0.041033
     66 H36        -21.7940    17.6880    -8.9010 hc         1 T0H       0.041033
     67 H37        -23.8840    17.3950   -12.1090 hc         1 T0H       0.041033
     68 H38        -22.2610    17.1060   -11.4500 hc         1 T0H       0.041033
     69 H39        -23.5960    16.0310   -11.0080 hc         1 T0H       0.041033
     70 H40        -23.3860    19.8650    -9.5690 ho         1 T0H       0.437000
@<TRIPOS>BOND
     1     1     4 1   
     2     1    31 1   
     3     2     3 1   
     4     2    11 1   
     5     2    27 1   
     6     2    32 1   
     7     3     4 1   
     8     3    33 1   
     9     3    34 1   
    10     4     5 1   
    11     4    35 1   
    12     5     6 1   
    13     5    36 1   
    14     5    37 1   
    15     6     7 2   
    16     6    11 1   
    17     7     8 1   
    18     7    38 1   
    19     8     9 2   
    20     8    39 1   
    21     9    10 1   
    22     9    15 1   
    23    10    12 1   
    24    10    40 1   
    25    10    41 1   
    26    11    20 2   
    27    12    13 1   
    28    12    42 1   
    29    12    43 1   
    30    13    14 1   
    31    13    44 1   
    32    13    45 1   
    33    14    15 1   
    34    14    18 1   
    35    14    19 1   
    36    15    16 1   
    37    15    46 1   
    38    16    17 1   
    39    16    47 1   
    40    16    48 1   
    41    17    18 1   
    42    17    49 1   
    43    17    50 1   
    44    18    21 2   
    45    19    51 1   
    46    19    52 1   
    47    19    53 1   
    48    20    54 1   
    49    20    55 1   
    50    21    22 2   
    51    22    23 1   
    52    22    56 1   
    53    23    24 1   
    54    23    57 1   
    55    23    58 1   
    56    24    25 1   
    57    24    59 1   
    58    24    60 1   
    59    25    26 1   
    60    25    61 1   
    61    25    62 1   
    62    26    28 1   
    63    26    29 1   
    64    26    30 1   
    65    27    63 1   
    66    28    64 1   
    67    28    65 1   
    68    28    66 1   
    69    29    67 1   
    70    29    68 1   
    71    29    69 1   
    72    30    70 1   
@<TRIPOS>SUBSTRUCTURE
     1 T0H         1 TEMP              0 ****  ****    0 ROOT
