@<TRIPOS>MOLECULE
T0I
   31    32     1     0     0
SMALL
No Charge or Current Charge


@<TRIPOS>ATOM
      1 C14         82.6810    49.8560    31.9460 cc         1 T0I      -0.203000
      2 C15         82.8630    50.2360    33.2540 cd         1 T0I       0.201900
      3 N11         81.6600    50.2500    33.9480 nd         1 T0I      -0.696000
      4 C12         80.7320    49.8710    33.0720 cc         1 T0I       0.397400
      5 N13         81.3320    49.6150    31.8610 na         1 T0I      -0.043300
      6 C5          80.6590    49.2690    30.6810 ca         1 T0I      -0.113200
      7 C6          80.9850    49.9320    29.4790 ca         1 T0I      -0.022000
      8 C4          79.6590    48.2680    30.6610 ca         1 T0I       0.166100
      9 O4          79.3210    47.5790    31.7870 oh         1 T0I      -0.526100
     10 C3          79.0040    47.9470    29.4660 ca         1 T0I      -0.316000
     11 C2          79.3330    48.6150    28.2780 ca         1 T0I       0.188100
     12 O2          78.6690    48.2790    27.1370 oh         1 T0I      -0.499100
     13 C1          80.3290    49.6150    28.2740 ca         1 T0I      -0.082300
     14 CB          80.7000    50.3670    26.9910 c3         1 T0I      -0.006100
     15 CA          81.6840    49.5920    26.0720 c3         1 T0I       0.014500
     16 C           81.7590    50.2870    24.6520 c          1 T0I       0.694000
     17 O           82.3210    51.3710    24.5630 o          1 T0I      -0.729500
     18 N           83.0090    49.3550    26.7620 n8         1 T0I      -1.002200
     19 OXT         81.3450    49.6680    23.6800 o          1 T0I      -0.729500
     20 H14         83.3760    49.7390    31.1260 h4         1 T0I       0.159000
     21 H15         83.7940    50.5090    33.7360 h4         1 T0I       0.025100
     22 H12         79.6650    49.7860    33.2430 h5         1 T0I       0.050100
     23 H6          81.7500    50.7060    29.4790 ha         1 T0I       0.136000
     24 H4          78.6370    46.9210    31.5450 ho         1 T0I       0.458000
     25 H3          78.2370    47.1760    29.4580 ha         1 T0I       0.104000
     26 H2          78.0280    47.5720    27.3580 ho         1 T0I       0.450000
     27 HB1C        79.7900    50.5890    26.4210 hc         1 T0I       0.056200
     28 HB2C        81.1330    51.3460    27.2340 hc         1 T0I       0.056200
     29 HA          81.2410    48.6010    25.8980 h1         1 T0I       0.045700
     30 HN1         83.6050    48.7810    26.1530 hn         1 T0I       0.383000
     31 HN2         83.5140    50.2480    26.8070 hn         1 T0I       0.383000
@<TRIPOS>BOND
     1     1     2 2   
     2     1     5 1   
     3     1    20 1   
     4     2     3 1   
     5     2    21 1   
     6     3     4 2   
     7     4     5 1   
     8     4    22 1   
     9     5     6 1   
    10     6     7 ar  
    11     6     8 ar  
    12     7    13 ar  
    13     7    23 1   
    14     8     9 1   
    15     8    10 ar  
    16     9    24 1   
    17    10    11 ar  
    18    10    25 1   
    19    11    12 1   
    20    11    13 ar  
    21    12    26 1   
    22    13    14 1   
    23    14    15 1   
    24    14    27 1   
    25    14    28 1   
    26    15    16 1   
    27    15    18 1   
    28    15    29 1   
    29    16    17 1   
    30    16    19 1   
    31    18    30 1   
    32    18    31 1   
@<TRIPOS>SUBSTRUCTURE
     1 T0I         1 TEMP              0 ****  ****    0 ROOT
