@<TRIPOS>MOLECULE
T0I
   31    32     1     0     0
SMALL
abcg2


@<TRIPOS>ATOM
      1 C14         82.5190    49.3040    32.3010 cc         1 T0I      -0.203000
      2 C15         82.6800    49.9760    33.4770 cd         1 T0I       0.201900
      3 N11         81.6000    50.7830    33.7140 nd         1 T0I      -0.696000
      4 C12         80.8030    50.6030    32.6960 cc         1 T0I       0.397400
      5 N13         81.3120    49.7190    31.8050 na         1 T0I      -0.043300
      6 C5          80.6920    49.2840    30.6080 ca         1 T0I      -0.113200
      7 C6          80.8910    49.9700    29.4190 ca         1 T0I      -0.022000
      8 C4          79.8780    48.1540    30.6260 ca         1 T0I       0.166100
      9 O4          79.7120    47.5140    31.7940 oh         1 T0I      -0.526100
     10 C3          79.2750    47.7410    29.4440 ca         1 T0I      -0.316000
     11 C2          79.4840    48.4440    28.2620 ca         1 T0I       0.188100
     12 O2          78.9100    48.0590    27.1070 oh         1 T0I      -0.499100
     13 C1          80.3010    49.5820    28.2270 ca         1 T0I      -0.082300
     14 CB          80.5500    50.3250    26.9480 c3         1 T0I      -0.006100
     15 CA          81.6270    49.6790    26.0590 c3         1 T0I       0.014500
     16 C           81.6380    50.3960    24.6820 c          1 T0I       0.694000
     17 O           82.6410    51.0810    24.4010 o          1 T0I      -0.729500
     18 N           82.8970    49.6530    26.7650 n8         1 T0I      -1.002200
     19 OXT         80.6190    50.2310    23.9800 o          1 T0I      -0.729500
     20 H14         83.1370    48.5930    31.7790 h4         1 T0I       0.159000
     21 H15         83.5120    49.9210    34.1620 h4         1 T0I       0.025100
     22 H12         79.8470    51.0790    32.5390 h5         1 T0I       0.050100
     23 H6          81.5250    50.8490    29.4300 ha         1 T0I       0.136000
     24 H4          79.1230    46.7580    31.6860 ho         1 T0I       0.458000
     25 H3          78.6360    46.8620    29.4470 ha         1 T0I       0.104000
     26 H2          78.3510    47.2850    27.2420 ho         1 T0I       0.450000
     27 HB1C        79.6280    50.4130    26.3750 hc         1 T0I       0.056200
     28 HB2C        80.8640    51.3470    27.1880 hc         1 T0I       0.056200
     29 HA          81.3280    48.6410    25.8820 h1         1 T0I       0.045700
     30 HN1         83.5580    49.1110    26.2210 hn         1 T0I       0.383000
     31 HN2         83.2770    50.5930    26.7540 hn         1 T0I       0.383000
@<TRIPOS>BOND
     1     1     2 2   
     2     1     5 1   
     3     1    20 1   
     4     2     3 1   
     5     2    21 1   
     6     3     4 2   
     7     4     5 1   
     8     4    22 1   
     9     5     6 1   
    10     6     7 ar  
    11     6     8 ar  
    12     7    13 ar  
    13     7    23 1   
    14     8     9 1   
    15     8    10 ar  
    16     9    24 1   
    17    10    11 ar  
    18    10    25 1   
    19    11    12 1   
    20    11    13 ar  
    21    12    26 1   
    22    13    14 1   
    23    14    15 1   
    24    14    27 1   
    25    14    28 1   
    26    15    16 1   
    27    15    18 1   
    28    15    29 1   
    29    16    17 1   
    30    16    19 1   
    31    18    30 1   
    32    18    31 1   
@<TRIPOS>SUBSTRUCTURE
     1 T0I         1 TEMP              0 ****  ****    0 ROOT
