@<TRIPOS>MOLECULE
T0J
   35    36     1     0     0
SMALL
No Charge or Current Charge


@<TRIPOS>ATOM
      1 C10          0.6620    -0.8790     0.5450 c          1 T0J       0.652100
      2 N12          1.6030     0.1220     0.3290 ns         1 T0J      -0.161000
      3 C13          2.9660     0.0930    -0.0750 ca         1 T0J      -0.014000
      4 C15          5.0520    -1.0400    -0.6670 ca         1 T0J      -0.087000
      5 C17          4.9520     1.3870    -0.6820 ca         1 T0J      -0.087000
      6 C02         -4.3950     0.7490    -0.8930 c          1 T0J       0.604100
      7 C04         -3.2860     0.4040     0.1230 c6         1 T0J      -0.141700
      8 C05         -2.0770     1.3810     0.0780 c6         1 T0J      -0.098900
      9 C06         -1.0140     0.9890     1.1320 c6         1 T0J       0.096000
     10 C08         -1.7590    -1.3780     1.1390 c6         1 T0J       0.096000
     11 C09         -2.8610    -1.0920     0.0910 c6         1 T0J      -0.098900
     12 C14          3.7050    -1.0960    -0.2680 ca         1 T0J      -0.141000
     13 C16          5.6760     0.2000    -0.8750 ca         1 T0J      -0.134000
     14 C18          3.6050     1.3310    -0.2840 ca         1 T0J      -0.141000
     15 N01         -5.5950     1.1090    -0.3870 nt         1 T0J      -0.610000
     16 N07         -0.6170    -0.4390     0.9670 n          1 T0J      -0.408800
     17 O03         -4.2260     0.7050    -2.1000 o          1 T0J      -0.597100
     18 O11          0.8960    -2.0700     0.3840 o          1 T0J      -0.614100
     19 H121         1.2520     1.0550     0.4900 hn         1 T0J       0.146000
     20 H151         5.6140    -1.9610    -0.8130 ha         1 T0J       0.112000
     21 H171         5.4330     2.3500    -0.8410 ha         1 T0J       0.112000
     22 H041        -3.7440     0.5520     1.1120 hc         1 T0J       0.047700
     23 H052        -1.6220     1.3620    -0.9220 hc         1 T0J       0.064950
     24 H051        -2.4140     2.4120     0.2530 hc         1 T0J       0.064950
     25 H062        -0.1580     1.6730     1.0610 h1         1 T0J       0.056950
     26 H061        -1.4380     1.1210     2.1380 h1         1 T0J       0.056950
     27 H081        -2.1730    -1.2530     2.1500 h1         1 T0J       0.056950
     28 H082        -1.4320    -2.4230     1.0520 h1         1 T0J       0.056950
     29 H092        -3.7290    -1.7400     0.2750 hc         1 T0J       0.064950
     30 H091        -2.4840    -1.3480    -0.9090 hc         1 T0J       0.064950
     31 H141         3.2590    -2.0730    -0.1120 ha         1 T0J       0.122000
     32 H161         6.7180     0.2410    -1.1830 ha         1 T0J       0.114000
     33 H181         3.0550     2.2590    -0.1380 ha         1 T0J       0.122000
     34 H012        -5.7330     1.1440     0.6120 hn         1 T0J       0.313000
     35 H011        -6.3470     1.3420    -1.0180 hn         1 T0J       0.313000
@<TRIPOS>BOND
     1     1     2 1   
     2     1    16 1   
     3     1    18 2   
     4     2     3 1   
     5     2    19 1   
     6     3    12 ar  
     7     3    14 ar  
     8     4    12 ar  
     9     4    13 ar  
    10     4    20 1   
    11     5    13 ar  
    12     5    14 ar  
    13     5    21 1   
    14     6     7 1   
    15     6    15 1   
    16     6    17 2   
    17     7     8 1   
    18     7    11 1   
    19     7    22 1   
    20     8     9 1   
    21     8    23 1   
    22     8    24 1   
    23     9    16 1   
    24     9    25 1   
    25     9    26 1   
    26    10    11 1   
    27    10    16 1   
    28    10    27 1   
    29    10    28 1   
    30    11    29 1   
    31    11    30 1   
    32    12    31 1   
    33    13    32 1   
    34    14    33 1   
    35    15    34 1   
    36    15    35 1   
@<TRIPOS>SUBSTRUCTURE
     1 T0J         1 TEMP              0 ****  ****    0 ROOT
