@<TRIPOS>MOLECULE
T0J
   35    36     1     0     0
SMALL
bcc


@<TRIPOS>ATOM
      1 C10          0.6030    -0.5470     0.8080 c          1 T0J       0.786100
      2 N12          1.5190     0.4480     0.5550 ns         1 T0J      -0.487100
      3 C13          2.7830     0.2570    -0.0110 ca         1 T0J       0.078600
      4 C15          4.3030    -0.7700    -1.5720 ca         1 T0J      -0.105000
      5 C17          5.0830     0.9870    -0.1490 ca         1 T0J      -0.105000
      6 C02         -4.0710     0.1800    -1.0850 c          1 T0J       0.671100
      7 C04         -3.1910     0.1780     0.1510 c6         1 T0J      -0.141700
      8 C05         -2.0900     1.2350    -0.0060 c6         1 T0J      -0.098900
      9 C06         -1.1350     1.2010     1.1820 c6         1 T0J       0.096000
     10 C08         -1.6120    -1.1270     1.5910 c6         1 T0J       0.096000
     11 C09         -2.5810    -1.1960     0.4180 c6         1 T0J      -0.098900
     12 C14          3.0330    -0.6720    -1.0240 ca         1 T0J      -0.159000
     13 C16          5.3370     0.0520    -1.1430 ca         1 T0J      -0.152000
     14 C18          3.8210     1.0850     0.4160 ca         1 T0J      -0.159000
     15 N01         -5.1670     0.9480    -0.9980 nt         1 T0J      -0.677000
     16 N07         -0.5750    -0.1320     1.3580 n          1 T0J      -0.475800
     17 O03         -3.7790    -0.4470    -2.0950 o          1 T0J      -0.597100
     18 O11          0.8490    -1.7240     0.5840 o          1 T0J      -0.614100
     19 H121         1.4160     1.3160     1.0550 hn         1 T0J       0.312500
     20 H151         4.4790    -1.4960    -2.3560 ha         1 T0J       0.130000
     21 H171         5.8710     1.6430     0.1980 ha         1 T0J       0.130000
     22 H041        -3.7980     0.4580     1.0190 hc         1 T0J       0.047700
     23 H052        -1.5250     1.0570    -0.9250 hc         1 T0J       0.064950
     24 H051        -2.5280     2.2330    -0.0830 hc         1 T0J       0.064950
     25 H062        -0.3650     1.9560     1.0550 h1         1 T0J       0.056950
     26 H061        -1.6670     1.4670     2.0990 h1         1 T0J       0.056950
     27 H081        -2.1440    -0.8410     2.5030 h1         1 T0J       0.056950
     28 H082        -1.1580    -2.0960     1.7780 h1         1 T0J       0.056950
     29 H092        -3.3670    -1.9210     0.6410 hc         1 T0J       0.064950
     30 H091        -2.0520    -1.5540    -0.4670 hc         1 T0J       0.064950
     31 H141         2.2460    -1.3100    -1.3950 ha         1 T0J       0.140000
     32 H161         6.3230    -0.0320    -1.5800 ha         1 T0J       0.132000
     33 H181         3.6390     1.8130     1.1980 ha         1 T0J       0.140000
     34 H012        -5.3860     1.4660    -0.1650 hn         1 T0J       0.313000
     35 H011        -5.7710     1.0750    -1.7940 hn         1 T0J       0.313000
@<TRIPOS>BOND
     1     1     2 1   
     2     1    16 1   
     3     1    18 2   
     4     2     3 1   
     5     2    19 1   
     6     3    12 ar  
     7     3    14 ar  
     8     4    12 ar  
     9     4    13 ar  
    10     4    20 1   
    11     5    13 ar  
    12     5    14 ar  
    13     5    21 1   
    14     6     7 1   
    15     6    15 1   
    16     6    17 2   
    17     7     8 1   
    18     7    11 1   
    19     7    22 1   
    20     8     9 1   
    21     8    23 1   
    22     8    24 1   
    23     9    16 1   
    24     9    25 1   
    25     9    26 1   
    26    10    11 1   
    27    10    16 1   
    28    10    27 1   
    29    10    28 1   
    30    11    29 1   
    31    11    30 1   
    32    12    31 1   
    33    13    32 1   
    34    14    33 1   
    35    15    34 1   
    36    15    35 1   
@<TRIPOS>SUBSTRUCTURE
     1 T0J         1 TEMP              0 ****  ****    0 ROOT
