@<TRIPOS>MOLECULE
T0K
   76    79     1     0     0
SMALL
abcg2


@<TRIPOS>ATOM
      1 C10        -15.6150   -35.8860    -9.7730 c          1 T0K       0.586100
      2 C11        -16.2200   -35.2990    -8.4980 c3         1 T0K      -0.008700
      3 C13        -18.8530   -35.1800    -9.5330 c3         1 T0K       0.045600
      4 C14        -19.3500   -33.7420    -9.3490 c3         1 T0K       0.117700
      5 C18        -15.3090   -35.6320    -7.2980 c3         1 T0K      -0.007100
      6 C19        -15.6460   -34.8290    -6.0690 ca         1 T0K      -0.084300
      7 C20        -20.2880   -33.2900   -10.4760 c3         1 T0K      -0.052100
      8 C21        -19.7460   -33.0880   -11.8780 ca         1 T0K      -0.070300
      9 C22        -18.4270   -33.3080   -12.2760 ca         1 T0K      -0.117000
     10 C01        -12.7800   -38.7020   -12.9530 ca         1 T0K      -0.068000
     11 C02        -13.6740   -39.3410   -12.0950 ca         1 T0K      -0.134300
     12 C03        -14.0360   -40.6490   -12.4150 ca         1 T0K       0.334900
     13 C05        -12.7250   -40.6820   -14.2880 ca         1 T0K       0.332900
     14 C06        -12.2970   -39.3790   -14.0640 ca         1 T0K      -0.162000
     15 C07        -14.2630   -38.6420   -10.9030 c3         1 T0K      -0.050100
     16 C08        -15.4930   -37.8070   -11.2940 c3         1 T0K       0.107000
     17 C23        -20.6450   -32.6180   -12.8430 ca         1 T0K      -0.117000
     18 C24        -20.2450   -32.3700   -14.1480 ca         1 T0K      -0.106500
     19 C25        -18.9220   -32.5830   -14.5260 ca         1 T0K      -0.116000
     20 C26        -18.0180   -33.0550   -13.5840 ca         1 T0K      -0.106500
     21 C27        -16.6170   -34.6580    -3.8570 ca         1 T0K      -0.105500
     22 C28        -16.3270   -33.2980    -3.8220 ca         1 T0K      -0.098000
     23 C29        -15.6900   -32.7040    -4.9080 ca         1 T0K      -0.105500
     24 C30        -15.3520   -33.4650    -6.0200 ca         1 T0K      -0.099000
     25 C31        -16.2770   -35.4160    -4.9730 ca         1 T0K      -0.099000
     26 C32        -17.0840   -30.9510    -8.1030 c3         1 T0K      -0.157400
     27 C33        -17.6910   -29.5530    -8.3450 c3         1 T0K      -0.018100
     28 C34        -18.4850   -29.4780    -9.6200 ca         1 T0K      -0.142300
     29 C37        -20.0400   -29.4350   -11.8760 ca         1 T0K       0.335900
     30 C38        -18.6570   -29.4430   -12.0160 ca         1 T0K      -0.157000
     31 C39        -17.8730   -29.4650   -10.8730 ca         1 T0K      -0.075000
     32 C40        -19.8780   -29.4680    -9.5960 ca         1 T0K       0.339900
     33 N04        -13.5810   -41.3150   -13.4800 nb         1 T0K      -0.663000
     34 N09        -16.0510   -37.0900   -10.1630 ns         1 T0K      -0.500900
     35 N15        -18.2730   -32.7880    -9.1260 ns         1 T0K      -0.506900
     36 N36        -20.6490   -29.4440   -10.6880 nb         1 T0K      -0.667000
     37 O17        -14.7360   -35.2540   -10.3640 o          1 T0K      -0.616100
     38 O35        -18.9280   -32.0840    -7.0650 o          1 T0K      -0.597100
     39 S12        -17.9220   -35.8440    -8.1160 ss         1 T0K      -0.415000
     40 H1         -16.2290   -34.2220    -8.6410 h1         1 T0K       0.097700
     41 H2         -19.7220   -35.8310    -9.6370 h1         1 T0K       0.075700
     42 H3         -18.2510   -35.3090   -10.4290 h1         1 T0K       0.075700
     43 H4         -19.9360   -33.7220    -8.4310 h1         1 T0K       0.097700
     44 H5         -15.3700   -36.7010    -7.0820 hc         1 T0K       0.062200
     45 H6         -14.2840   -35.4190    -7.6080 hc         1 T0K       0.062200
     46 H7         -20.7360   -32.3440   -10.1590 hc         1 T0K       0.065200
     47 H8         -21.1110   -34.0090   -10.5250 hc         1 T0K       0.065200
     48 H9         -17.6880   -33.6860   -11.5850 ha         1 T0K       0.111000
     49 H11        -14.7270   -41.1840   -11.7700 h4         1 T0K       0.016100
     50 H12        -12.3660   -41.2390   -15.1460 h4         1 T0K       0.020100
     51 H13        -11.5990   -38.9100   -14.7450 ha         1 T0K       0.125000
     52 H14        -14.5570   -39.3730   -10.1470 hc         1 T0K       0.058700
     53 H15        -13.5210   -37.9790   -10.4540 hc         1 T0K       0.058700
     54 H16        -15.2190   -37.0820   -12.0590 h1         1 T0K       0.060200
     55 H17        -16.2700   -38.4540   -11.7010 h1         1 T0K       0.060200
     56 H18        -21.6730   -32.4320   -12.5560 ha         1 T0K       0.111000
     57 H19        -20.9640   -32.0010   -14.8690 ha         1 T0K       0.114000
     58 H20        -18.6020   -32.3840   -15.5410 ha         1 T0K       0.114000
     59 H21        -16.9850   -33.2300   -13.8590 ha         1 T0K       0.114000
     60 H22        -17.1110   -35.1300    -3.0150 ha         1 T0K       0.111000
     61 H23        -16.5920   -32.7060    -2.9550 ha         1 T0K       0.113000
     62 H24        -15.4580   -31.6460    -4.8890 ha         1 T0K       0.111000
     63 H25        -14.8600   -32.9970    -6.8640 ha         1 T0K       0.108500
     64 H26        -16.5110   -36.4740    -4.9990 ha         1 T0K       0.108500
     65 H27        -16.5550   -30.9510    -7.1510 hc         1 T0K       0.063200
     66 H28        -16.3660   -31.1870    -8.8900 hc         1 T0K       0.063200
     67 H29        -16.8750   -28.8280    -8.3700 hc         1 T0K       0.061200
     68 H30        -18.3320   -29.2960    -7.5000 hc         1 T0K       0.061200
     69 H31        -20.6790   -29.4250   -12.7500 h4         1 T0K       0.019100
     70 H32        -18.2110   -29.4410   -13.0020 ha         1 T0K       0.125000
     71 H33        -16.7910   -29.4780   -10.9490 ha         1 T0K       0.116000
     72 H34        -20.3950   -29.4810    -8.6420 h4         1 T0K       0.026100
     73 H35        -16.7760   -37.5240    -9.6090 hn         1 T0K       0.334500
     74 H36        -17.6450   -32.5900    -9.8870 hn         1 T0K       0.312500
     75 C16        -18.1740   -32.0010    -8.0350 c          1 T0K       0.600100
     76 H10        -12.4640   -37.6850   -12.7470 ha         1 T0K       0.125000
@<TRIPOS>BOND
     1     1     2 1   
     2     1    34 1   
     3     1    37 2   
     4     2     5 1   
     5     2    39 1   
     6     2    40 1   
     7     3     4 1   
     8     3    39 1   
     9     3    41 1   
    10     3    42 1   
    11     4     7 1   
    12     4    35 1   
    13     4    43 1   
    14     5     6 1   
    15     5    44 1   
    16     5    45 1   
    17     6    24 ar  
    18     6    25 ar  
    19     7     8 1   
    20     7    46 1   
    21     7    47 1   
    22     8     9 ar  
    23     8    17 ar  
    24     9    20 ar  
    25     9    48 1   
    26    10    11 ar  
    27    10    14 ar  
    28    10    76 1   
    29    11    12 ar  
    30    11    15 1   
    31    12    33 ar  
    32    12    49 1   
    33    13    14 ar  
    34    13    33 ar  
    35    13    50 1   
    36    14    51 1   
    37    15    16 1   
    38    15    52 1   
    39    15    53 1   
    40    16    34 1   
    41    16    54 1   
    42    16    55 1   
    43    17    18 ar  
    44    17    56 1   
    45    18    19 ar  
    46    18    57 1   
    47    19    20 ar  
    48    19    58 1   
    49    20    59 1   
    50    21    22 ar  
    51    21    25 ar  
    52    21    60 1   
    53    22    23 ar  
    54    22    61 1   
    55    23    24 ar  
    56    23    62 1   
    57    24    63 1   
    58    25    64 1   
    59    26    27 1   
    60    26    65 1   
    61    26    66 1   
    62    26    75 1   
    63    27    28 1   
    64    27    67 1   
    65    27    68 1   
    66    28    31 ar  
    67    28    32 ar  
    68    29    30 ar  
    69    29    36 ar  
    70    29    69 1   
    71    30    31 ar  
    72    30    70 1   
    73    31    71 1   
    74    32    36 ar  
    75    32    72 1   
    76    34    73 1   
    77    35    74 1   
    78    35    75 1   
    79    38    75 2   
@<TRIPOS>SUBSTRUCTURE
     1 T0K         1 TEMP              0 ****  ****    0 ROOT
