@<TRIPOS>MOLECULE
T0K
   76    79     1     0     0
SMALL
No Charge or Current Charge


@<TRIPOS>ATOM
      1 C10        -15.5580   -36.0290    -9.9780 c          1 T0K       0.586100
      2 C11        -16.1480   -35.3160    -8.7380 c3         1 T0K      -0.008700
      3 C13        -18.8130   -35.2690    -9.8160 c3         1 T0K       0.045600
      4 C14        -19.5620   -33.9450    -9.5350 c3         1 T0K       0.117700
      5 C18        -15.2150   -35.4840    -7.5140 c3         1 T0K      -0.007100
      6 C19        -15.4590   -34.4510    -6.4180 ca         1 T0K      -0.084300
      7 C20        -20.4000   -33.4740   -10.7490 c3         1 T0K      -0.052100
      8 C21        -19.5630   -33.1990   -11.9970 ca         1 T0K      -0.070300
      9 C22        -18.9110   -31.9620   -12.1570 ca         1 T0K      -0.117000
     10 C01        -13.4150   -39.2050   -13.4530 ca         1 T0K      -0.068000
     11 C02        -13.9500   -39.7480   -12.2710 ca         1 T0K      -0.134300
     12 C03        -14.1110   -41.1480   -12.1850 ca         1 T0K       0.334900
     13 C05        -13.2620   -41.4650   -14.3180 ca         1 T0K       0.332900
     14 C06        -13.0660   -40.0840   -14.4910 ca         1 T0K      -0.162000
     15 C07        -14.3490   -38.8420   -11.1130 c3         1 T0K      -0.050100
     16 C08        -15.6910   -38.1280   -11.3720 c3         1 T0K       0.107000
     17 C23        -19.4320   -34.1820   -12.9980 ca         1 T0K      -0.117000
     18 C24        -18.6510   -33.9310   -14.1400 ca         1 T0K      -0.106500
     19 C25        -18.0000   -32.6950   -14.2900 ca         1 T0K      -0.116000
     20 C26        -18.1310   -31.7090   -13.2970 ca         1 T0K      -0.106500
     21 C27        -16.6380   -33.7250    -4.4070 ca         1 T0K      -0.105500
     22 C28        -15.8580   -32.5570    -4.3650 ca         1 T0K      -0.098000
     23 C29        -14.8800   -32.3320    -5.3480 ca         1 T0K      -0.105500
     24 C30        -14.6850   -33.2740    -6.3740 ca         1 T0K      -0.099000
     25 C31        -16.4360   -34.6700    -5.4270 ca         1 T0K      -0.099000
     26 C32        -17.5970   -31.2070    -7.6500 c3         1 T0K      -0.157400
     27 C33        -18.1640   -29.7710    -7.6050 c3         1 T0K      -0.018100
     28 C34        -18.7350   -29.3120    -8.9410 ca         1 T0K      -0.142300
     29 C37        -19.8650   -28.4540   -11.3070 ca         1 T0K       0.335900
     30 C38        -18.4680   -28.4150   -11.1660 ca         1 T0K      -0.157000
     31 C39        -17.8860   -28.8510    -9.9640 ca         1 T0K      -0.075000
     32 C40        -20.1270   -29.3180    -9.1720 ca         1 T0K       0.339900
     33 N04        -13.7760   -41.9970   -13.1850 nb         1 T0K      -0.663000
     34 N09        -16.0900   -37.2700   -10.2540 ns         1 T0K      -0.500900
     35 N15        -18.6420   -32.8870    -9.0980 ns         1 T0K      -0.506900
     36 N36        -20.6900   -28.8990   -10.3300 nb         1 T0K      -0.667000
     37 O17        -14.7070   -35.5150   -10.6900 o          1 T0K      -0.616100
     38 O35        -19.5350   -32.5100    -7.0320 o          1 T0K      -0.597100
     39 S12        -17.8860   -35.8830    -8.3270 ss         1 T0K      -0.415000
     40 H1         -16.1850   -34.2500    -8.9940 h1         1 T0K       0.097700
     41 H2         -19.5440   -36.0350   -10.1070 h1         1 T0K       0.075700
     42 H3         -18.1160   -35.1360   -10.6540 h1         1 T0K       0.075700
     43 H4         -20.2690   -34.1500    -8.7190 h1         1 T0K       0.097700
     44 H5         -15.3210   -36.5000    -7.1150 hc         1 T0K       0.062200
     45 H6         -14.1740   -35.4070    -7.8510 hc         1 T0K       0.062200
     46 H7         -20.9530   -32.5700   -10.4650 hc         1 T0K       0.065200
     47 H8         -21.1630   -34.2310   -10.9660 hc         1 T0K       0.065200
     48 H9         -19.0090   -31.1970   -11.3930 ha         1 T0K       0.111000
     49 H11        -14.5240   -41.6050   -11.2860 h4         1 T0K       0.016100
     50 H12        -12.9990   -42.1660   -15.1090 h4         1 T0K       0.020100
     51 H13        -12.6500   -39.7070   -15.4210 ha         1 T0K       0.125000
     52 H14        -14.4270   -39.4210   -10.1840 hc         1 T0K       0.058700
     53 H15        -13.5670   -38.0930   -10.9430 hc         1 T0K       0.058700
     54 H16        -15.6160   -37.5170   -12.2820 h1         1 T0K       0.060200
     55 H17        -16.4770   -38.8780   -11.5340 h1         1 T0K       0.060200
     56 H18        -19.9300   -35.1430   -12.8910 ha         1 T0K       0.111000
     57 H19        -18.5510   -34.6950   -14.9080 ha         1 T0K       0.114000
     58 H20        -17.3960   -32.5010   -15.1740 ha         1 T0K       0.114000
     59 H21        -17.6290   -30.7510   -13.4120 ha         1 T0K       0.114000
     60 H22        -17.3960   -33.9000    -3.6470 ha         1 T0K       0.111000
     61 H23        -16.0120   -31.8270    -3.5730 ha         1 T0K       0.113000
     62 H24        -14.2770   -31.4280    -5.3180 ha         1 T0K       0.111000
     63 H25        -13.9250   -33.0900    -7.1300 ha         1 T0K       0.108500
     64 H26        -17.0380   -35.5750    -5.4460 ha         1 T0K       0.108500
     65 H27        -17.1370   -31.4120    -6.6790 hc         1 T0K       0.063200
     66 H28        -16.8340   -31.2710    -8.4340 hc         1 T0K       0.063200
     67 H29        -17.3610   -29.0880    -7.2970 hc         1 T0K       0.061200
     68 H30        -18.9260   -29.7070    -6.8190 hc         1 T0K       0.061200
     69 H31        -20.3400   -28.1220   -12.2290 h4         1 T0K       0.019100
     70 H32        -17.8500   -28.0490   -11.9810 ha         1 T0K       0.125000
     71 H33        -16.8060   -28.8260    -9.8300 ha         1 T0K       0.116000
     72 H34        -20.8160   -29.6670    -8.4030 h4         1 T0K       0.026100
     73 H35        -16.8150   -37.5920    -9.6220 hn         1 T0K       0.334500
     74 H36        -17.9170   -32.5890    -9.7380 hn         1 T0K       0.312500
     75 C16        -18.6920   -32.2510    -7.8780 c          1 T0K       0.600100
     76 H10        -13.2730   -38.1320   -13.5640 ha         1 T0K       0.125000
@<TRIPOS>BOND
     1     1     2 1   
     2     1    34 1   
     3     1    37 2   
     4     2     5 1   
     5     2    39 1   
     6     2    40 1   
     7     3     4 1   
     8     3    39 1   
     9     3    41 1   
    10     3    42 1   
    11     4     7 1   
    12     4    35 1   
    13     4    43 1   
    14     5     6 1   
    15     5    44 1   
    16     5    45 1   
    17     6    24 ar  
    18     6    25 ar  
    19     7     8 1   
    20     7    46 1   
    21     7    47 1   
    22     8     9 ar  
    23     8    17 ar  
    24     9    20 ar  
    25     9    48 1   
    26    10    11 ar  
    27    10    14 ar  
    28    10    76 1   
    29    11    12 ar  
    30    11    15 1   
    31    12    33 ar  
    32    12    49 1   
    33    13    14 ar  
    34    13    33 ar  
    35    13    50 1   
    36    14    51 1   
    37    15    16 1   
    38    15    52 1   
    39    15    53 1   
    40    16    34 1   
    41    16    54 1   
    42    16    55 1   
    43    17    18 ar  
    44    17    56 1   
    45    18    19 ar  
    46    18    57 1   
    47    19    20 ar  
    48    19    58 1   
    49    20    59 1   
    50    21    22 ar  
    51    21    25 ar  
    52    21    60 1   
    53    22    23 ar  
    54    22    61 1   
    55    23    24 ar  
    56    23    62 1   
    57    24    63 1   
    58    25    64 1   
    59    26    27 1   
    60    26    65 1   
    61    26    66 1   
    62    26    75 1   
    63    27    28 1   
    64    27    67 1   
    65    27    68 1   
    66    28    31 ar  
    67    28    32 ar  
    68    29    30 ar  
    69    29    36 ar  
    70    29    69 1   
    71    30    31 ar  
    72    30    70 1   
    73    31    71 1   
    74    32    36 ar  
    75    32    72 1   
    76    34    73 1   
    77    35    74 1   
    78    35    75 1   
    79    38    75 2   
@<TRIPOS>SUBSTRUCTURE
     1 T0K         1 TEMP              0 ****  ****    0 ROOT
