@<TRIPOS>MOLECULE
T0L
   29    31     1     0     0
SMALL
abcg2


@<TRIPOS>ATOM
      1 C4          34.8560    79.8860    -6.5620 cp         1 T0L       0.019000
      2 C2          34.9870    79.1970    -8.9490 ca         1 T0L      -0.069000
      3 C3          34.2610    79.7650    -7.9090 cp         1 T0L      -0.070000
      4 C1          34.4840    79.0730   -10.2570 ca         1 T0L      -0.115600
      5 C8          36.2170    78.9680    -4.7690 ca         1 T0L      -0.020000
      6 C9          35.6320    78.8550    -6.0330 ca         1 T0L      -0.061000
      7 C10         37.0020    77.8900    -4.2650 cg         1 T0L       0.343000
      8 C11         32.9520    80.2200    -8.1870 ca         1 T0L      -0.092800
      9 C5          34.6800    81.0370    -5.7840 ca         1 T0L      -0.084000
     10 N           37.6460    77.0150    -3.8800 n1         1 T0L      -0.469000
     11 C7          36.0180    80.1300    -4.0130 ca         1 T0L       0.132000
     12 CL          36.7290    80.2810    -2.4350 cl         1 T0L      -0.212000
     13 C6          35.2510    81.1630    -4.5260 ca         1 T0L      -0.117000
     14 C14         32.4560    80.0830    -9.5130 ca         1 T0L      -0.063200
     15 N1          31.1690    80.5690    -9.5210 na         1 T0L      -0.236700
     16 C13         30.8320    80.9910    -8.2600 cc         1 T0L      -0.188100
     17 C12         31.8920    80.7960    -7.4110 cd         1 T0L      -0.254200
     18 C15         33.2020    79.5240   -10.5450 ca         1 T0L      -0.094000
     19 C           35.3430    78.4490   -11.3540 c          1 T0L       0.704600
     20 O1          36.4880    78.0420   -11.0250 o          1 T0L      -0.717500
     21 O           34.8430    78.3830   -12.5070 o          1 T0L      -0.717500
     22 H1          35.9960    78.8520    -8.7680 ha         1 T0L       0.135000
     23 H2          35.7820    77.9440    -6.5950 ha         1 T0L       0.144000
     24 H3          34.1020    81.8630    -6.1760 ha         1 T0L       0.128000
     25 H4          35.1090    82.0640    -3.9460 ha         1 T0L       0.121000
     26 H5          30.5610    80.5940   -10.3240 hn         1 T0L       0.340000
     27 H6          29.8540    81.3990    -8.0620 h4         1 T0L       0.193000
     28 H7          31.8980    81.0310    -6.3610 ha         1 T0L       0.188000
     29 H8          32.8070    79.4330   -11.5470 ha         1 T0L       0.135000
@<TRIPOS>BOND
     1     1     3 1   
     2     1     6 ar  
     3     1     9 ar  
     4     2     3 ar  
     5     2     4 ar  
     6     2    22 1   
     7     3     8 ar  
     8     4    18 ar  
     9     4    19 1   
    10     5     6 ar  
    11     5     7 1   
    12     5    11 ar  
    13     6    23 1   
    14     7    10 3   
    15     8    14 ar  
    16     8    17 1   
    17     9    13 ar  
    18     9    24 1   
    19    11    12 1   
    20    11    13 ar  
    21    13    25 1   
    22    14    15 1   
    23    14    18 ar  
    24    15    16 1   
    25    15    26 1   
    26    16    17 2   
    27    16    27 1   
    28    17    28 1   
    29    18    29 1   
    30    19    20 1   
    31    19    21 1   
@<TRIPOS>SUBSTRUCTURE
     1 T0L         1 TEMP              0 ****  ****    0 ROOT
