@<TRIPOS>MOLECULE
T0L
   29    31     1     0     0
SMALL
No Charge or Current Charge


@<TRIPOS>ATOM
      1 C4          34.8830    79.8960    -6.5640 cp         1 T0L       0.019000
      2 C2          35.0440    79.2120    -9.0070 ca         1 T0L      -0.069000
      3 C3          34.2950    79.7660    -7.9320 cp         1 T0L      -0.070000
      4 C1          34.5060    79.0860   -10.3200 ca         1 T0L      -0.115600
      5 C8          36.1870    78.9470    -4.7030 ca         1 T0L      -0.020000
      6 C9          35.6220    78.8330    -5.9890 ca         1 T0L      -0.061000
      7 C10         36.9230    77.8410    -4.1540 cg         1 T0L       0.343000
      8 C11         32.9780    80.1770    -8.2350 ca         1 T0L      -0.092800
      9 C5          34.7370    81.0880    -5.8150 ca         1 T0L      -0.084000
     10 N           37.5190    76.9340    -3.7200 n1         1 T0L      -0.469000
     11 C7          36.0210    80.1430    -3.9730 ca         1 T0L       0.132000
     12 Cl          36.7070    80.3440    -2.3580 cl         1 T0L      -0.212000
     13 C6          35.2980    81.2090    -4.5330 ca         1 T0L      -0.117000
     14 C14         32.4480    80.0640    -9.4920 ca         1 T0L      -0.063200
     15 N1          31.1440    80.5350    -9.4980 na         1 T0L      -0.236700
     16 C13         30.7760    80.9650    -8.2090 cc         1 T0L      -0.188100
     17 C12         31.9080    80.7380    -7.4420 cd         1 T0L      -0.254200
     18 C15         33.1780    79.5260   -10.5590 ca         1 T0L      -0.094000
     19 C           35.3390    78.4930   -11.4450 c          1 T0L       0.704600
     20 O1          36.4760    78.1150   -11.1970 o          1 T0L      -0.717500
     21 O           34.8440    78.4140   -12.5610 o          1 T0L      -0.717500
     22 H1          36.0650    78.8870    -8.8170 ha         1 T0L       0.135000
     23 H2          35.7440    77.9080    -6.5490 ha         1 T0L       0.144000
     24 H3          34.1960    81.9290    -6.2410 ha         1 T0L       0.128000
     25 H4          35.1760    82.1330    -3.9730 ha         1 T0L       0.121000
     26 H5          30.5420    80.5580   -10.3170 hn         1 T0L       0.340000
     27 H6          29.7970    81.3660    -7.9590 h4         1 T0L       0.193000
     28 H7          31.9660    80.9420    -6.3760 ha         1 T0L       0.188000
     29 H8          32.7280    79.4460   -11.5450 ha         1 T0L       0.135000
@<TRIPOS>BOND
     1     1     3 1   
     2     1     6 ar  
     3     1     9 ar  
     4     2     3 ar  
     5     2     4 ar  
     6     2    22 1   
     7     3     8 ar  
     8     4    18 ar  
     9     4    19 1   
    10     5     6 ar  
    11     5     7 1   
    12     5    11 ar  
    13     6    23 1   
    14     7    10 3   
    15     8    14 ar  
    16     8    17 1   
    17     9    13 ar  
    18     9    24 1   
    19    11    12 1   
    20    11    13 ar  
    21    13    25 1   
    22    14    15 1   
    23    14    18 ar  
    24    15    16 1   
    25    15    26 1   
    26    16    17 2   
    27    16    27 1   
    28    17    28 1   
    29    18    29 1   
    30    19    20 1   
    31    19    21 1   
@<TRIPOS>SUBSTRUCTURE
     1 T0L         1 TEMP              0 ****  ****    0 ROOT
