@<TRIPOS>MOLECULE
T0O
    9     9     1     0     0
SMALL
abcg2


@<TRIPOS>ATOM
      1 N1           1.8890    -2.3940   -52.2020 na         1 T0O      -0.307500
      2 N           -0.2220    -2.6820   -52.7850 nc         1 T0O      -0.668000
      3 C            1.3730    -3.3510   -51.3680 cd         1 T0O      -0.023000
      4 C1           0.0670    -3.5240   -51.7330 cc         1 T0O       0.259900
      5 C2           0.8890    -2.0210   -53.0410 cd         1 T0O       0.403400
      6 CL           2.3180    -4.0910   -50.1450 cl         1 T0O      -0.139000
      7 H1           2.8350    -2.0410   -52.1910 hn         1 T0O       0.362000
      8 H3          -0.6600    -4.1940   -51.3050 h4         1 T0O       0.051100
      9 H4           1.0280    -1.2730   -53.8040 h5         1 T0O       0.061100
@<TRIPOS>BOND
     1     1     3 1   
     2     1     5 1   
     3     1     7 1   
     4     2     4 1   
     5     2     5 2   
     6     3     4 2   
     7     3     6 1   
     8     4     8 1   
     9     5     9 1   
@<TRIPOS>SUBSTRUCTURE
     1 T0O         1 TEMP              0 ****  ****    0 ROOT
