@<TRIPOS>MOLECULE
T0O
    9     9     1     0     0
SMALL
No Charge or Current Charge


@<TRIPOS>ATOM
      1 N1           1.9020    -2.3880   -52.2040 na         1 T0O      -0.307500
      2 N           -0.2290    -2.6930   -52.7760 nc         1 T0O      -0.668000
      3 C            1.3930    -3.3500   -51.3590 cd         1 T0O      -0.023000
      4 C1           0.0860    -3.5200   -51.7290 cc         1 T0O       0.259900
      5 C2           0.8790    -2.0110   -53.0550 cd         1 T0O       0.403400
      6 Cl           2.2870    -4.1430   -50.1040 cl         1 T0O      -0.139000
      7 H1           2.8430    -2.0170   -52.2120 hn         1 T0O       0.362000
      8 H3          -0.6530    -4.1880   -51.3070 h4         1 T0O       0.051100
      9 H4           1.0100    -1.2610   -53.8270 h5         1 T0O       0.061100
@<TRIPOS>BOND
     1     1     3 1   
     2     1     5 1   
     3     1     7 1   
     4     2     4 1   
     5     2     5 2   
     6     3     4 2   
     7     3     6 1   
     8     4     8 1   
     9     5     9 1   
@<TRIPOS>SUBSTRUCTURE
     1 T0O         1 TEMP              0 ****  ****    0 ROOT
