@<TRIPOS>MOLECULE
T0R
   57    59     1     0     0
SMALL
No Charge or Current Charge


@<TRIPOS>ATOM
      1 C11          2.0850    -0.5870     0.5340 ca         1 T0R      -0.179500
      2 C14         -1.6830     2.5470     0.6330 ca         1 T0R      -0.098500
      3 Cl          -6.1480    -0.2220     1.1830 cl         1 T0R      -0.297000
      4 C9          -4.3300    -0.2250     1.1140 c3         1 T0R       0.135600
      5 C4          -3.8260    -0.7890    -0.2300 c3         1 T0R      -0.045200
      6 C2          -2.3010    -0.8660    -0.3220 ce         1 T0R      -0.056400
      7 C6          -1.7650    -2.2590    -0.3690 ca         1 T0R      -0.052800
      8 C16         -2.0720    -3.1850     0.6490 ca         1 T0R      -0.096500
      9 C22         -1.5560    -4.4920     0.5990 ca         1 T0R      -0.112500
     10 C24         -0.7300    -4.8820    -0.4680 ca         1 T0R      -0.108000
     11 C21         -0.4210    -3.9650    -1.4860 ca         1 T0R      -0.112500
     12 C15         -0.9370    -2.6590    -1.4370 ca         1 T0R      -0.096500
     13 C1          -1.5160     0.2620    -0.3760 cf         1 T0R       0.014600
     14 C5          -2.0360     1.6480    -0.3950 ca         1 T0R      -0.059800
     15 C20         -2.1690     3.8660     0.6230 ca         1 T0R      -0.111000
     16 C23         -3.0040     4.3000    -0.4190 ca         1 T0R      -0.106000
     17 C19         -3.3490     3.4150    -1.4540 ca         1 T0R      -0.111000
     18 C13         -2.8630     2.0960    -1.4440 ca         1 T0R      -0.098500
     19 C3          -0.0310     0.2560    -0.3630 ca         1 T0R      -0.100800
     20 C8           0.6960     1.1070    -1.2230 ca         1 T0R      -0.054000
     21 C12          2.1010     1.1040    -1.2090 ca         1 T0R      -0.179500
     22 C10          2.8030     0.2600    -0.3360 ca         1 T0R       0.152100
     23 C7           0.6800    -0.5840     0.5200 ca         1 T0R      -0.054000
     24 O            4.1810     0.3000    -0.3690 os         1 T0R      -0.327100
     25 C18          4.9940    -0.5260     0.4900 c3         1 T0R       0.165600
     26 C17          6.4930    -0.2400     0.2000 c3         1 T0R       0.165800
     27 N            6.9640     1.1610     0.4240 n3         1 T0R      -0.701600
     28 C26          6.7830     1.6360     1.8160 c3         1 T0R       0.149600
     29 C25          8.3470     1.3700    -0.0590 c3         1 T0R       0.149600
     30 H1           2.5960    -1.2490     1.2270 ha         1 T0R       0.122500
     31 H2          -1.0380     2.2180     1.4440 ha         1 T0R       0.116500
     32 H3          -3.9930     0.8090     1.2550 h1         1 T0R       0.066700
     33 H4          -3.9650    -0.8360     1.9480 h1         1 T0R       0.066700
     34 H5          -4.2660    -1.7850    -0.3660 hc         1 T0R       0.066200
     35 H6          -4.2380    -0.1860    -1.0450 hc         1 T0R       0.066200
     36 H7          -2.7030    -2.8910     1.4840 ha         1 T0R       0.115000
     37 H8          -1.7950    -5.2000     1.3890 ha         1 T0R       0.112500
     38 H9          -0.3300    -5.8930    -0.5060 ha         1 T0R       0.112000
     39 H10          0.2190    -4.2650    -2.3130 ha         1 T0R       0.112500
     40 H11         -0.6940    -1.9540    -2.2280 ha         1 T0R       0.115000
     41 H12         -1.8960     4.5510     1.4230 ha         1 T0R       0.114000
     42 H13         -3.3800     5.3210    -0.4270 ha         1 T0R       0.113000
     43 H14         -3.9880     3.7530    -2.2680 ha         1 T0R       0.114000
     44 H15         -3.1190     1.4260    -2.2610 ha         1 T0R       0.116500
     45 H16          0.1730     1.7660    -1.9130 ha         1 T0R       0.117000
     46 H17          2.6490     1.7600    -1.8800 ha         1 T0R       0.122500
     47 H18          0.1430    -1.2310     1.2090 ha         1 T0R       0.117000
     48 H19          4.7740    -0.3260     1.5460 h1         1 T0R       0.034200
     49 H20          4.7950    -1.5880     0.2960 h1         1 T0R       0.034200
     50 H21          7.0880    -0.9260     0.8180 h1         1 T0R       0.041200
     51 H22          6.6800    -0.5230    -0.8450 h1         1 T0R       0.041200
     52 H24          7.1340     2.6720     1.9200 h1         1 T0R       0.030867
     53 H25          5.7250     1.6160     2.1080 h1         1 T0R       0.030867
     54 H26          7.3490     1.0110     2.5200 h1         1 T0R       0.030867
     55 H27          8.4350     1.0920    -1.1180 h1         1 T0R       0.030867
     56 H28          8.6370     2.4250     0.0380 h1         1 T0R       0.030867
     57 H29          9.0580     0.7630     0.5170 h1         1 T0R       0.030867
@<TRIPOS>BOND
     1     1    22 ar  
     2     1    23 ar  
     3     1    30 1   
     4     2    14 ar  
     5     2    15 ar  
     6     2    31 1   
     7     3     4 1   
     8     4     5 1   
     9     4    32 1   
    10     4    33 1   
    11     5     6 1   
    12     5    34 1   
    13     5    35 1   
    14     6     7 1   
    15     6    13 2   
    16     7     8 ar  
    17     7    12 ar  
    18     8     9 ar  
    19     8    36 1   
    20     9    10 ar  
    21     9    37 1   
    22    10    11 ar  
    23    10    38 1   
    24    11    12 ar  
    25    11    39 1   
    26    12    40 1   
    27    13    14 1   
    28    13    19 1   
    29    14    18 ar  
    30    15    16 ar  
    31    15    41 1   
    32    16    17 ar  
    33    16    42 1   
    34    17    18 ar  
    35    17    43 1   
    36    18    44 1   
    37    19    20 ar  
    38    19    23 ar  
    39    20    21 ar  
    40    20    45 1   
    41    21    22 ar  
    42    21    46 1   
    43    22    24 1   
    44    23    47 1   
    45    24    25 1   
    46    25    26 1   
    47    25    48 1   
    48    25    49 1   
    49    26    27 1   
    50    26    50 1   
    51    26    51 1   
    52    27    28 1   
    53    27    29 1   
    54    28    52 1   
    55    28    53 1   
    56    28    54 1   
    57    29    55 1   
    58    29    56 1   
    59    29    57 1   
@<TRIPOS>SUBSTRUCTURE
     1 T0R         1 TEMP              0 ****  ****    0 ROOT
