@<TRIPOS>MOLECULE
T0R
   57    59     1     0     0
SMALL
abcg2


@<TRIPOS>ATOM
      1 C11          2.0680    -0.4800     0.6920 ca         1 T0R      -0.179500
      2 C14         -1.8550     2.5960     0.5940 ca         1 T0R      -0.098500
      3 CL          -5.8900    -0.2960     1.5340 cl         1 T0R      -0.297000
      4 C9          -4.1010    -0.3510     1.3100 c3         1 T0R       0.135600
      5 C4          -3.7540    -0.7330    -0.1190 c3         1 T0R      -0.045200
      6 C2          -2.2500    -0.8020    -0.2990 ce         1 T0R      -0.056400
      7 C6          -1.6670    -2.1600    -0.3970 ca         1 T0R      -0.052800
      8 C16         -2.0100    -3.1640     0.5110 ca         1 T0R      -0.096500
      9 C22         -1.4790    -4.4410     0.3950 ca         1 T0R      -0.112500
     10 C24         -0.6070    -4.7440    -0.6420 ca         1 T0R      -0.108000
     11 C21         -0.2760    -3.7600    -1.5650 ca         1 T0R      -0.112500
     12 C15         -0.8010    -2.4830    -1.4430 ca         1 T0R      -0.096500
     13 C1          -1.4900     0.3100    -0.3460 cf         1 T0R       0.014600
     14 C5          -2.0870     1.6690    -0.4220 ca         1 T0R      -0.059800
     15 C20         -2.3880     3.8750     0.5210 ca         1 T0R      -0.111000
     16 C23         -3.1450     4.2530    -0.5820 ca         1 T0R      -0.106000
     17 C19         -3.3640     3.3450    -1.6090 ca         1 T0R      -0.111000
     18 C13         -2.8380     2.0620    -1.5280 ca         1 T0R      -0.098500
     19 C3          -0.0110     0.2890    -0.2990 ca         1 T0R      -0.100800
     20 C8           0.7400     1.0640    -1.1870 ca         1 T0R      -0.054000
     21 C12          2.1200     1.0500    -1.1630 ca         1 T0R      -0.179500
     22 C10          2.8010     0.2710    -0.2250 ca         1 T0R       0.152100
     23 C7           0.6810    -0.4640     0.6440 ca         1 T0R      -0.054000
     24 O            4.1440     0.3150    -0.2750 os         1 T0R      -0.327100
     25 C18          4.8920    -0.4720     0.6350 c3         1 T0R       0.165600
     26 C17          6.3610    -0.3120     0.3130 c3         1 T0R       0.165800
     27 N            6.8470     1.0490     0.4040 n3         1 T0R      -0.701600
     28 C26          6.8300     1.5610     1.7560 c3         1 T0R       0.149600
     29 C25          8.1680     1.1620    -0.1740 c3         1 T0R       0.149600
     30 H1           2.5530    -1.0790     1.4500 ha         1 T0R       0.122500
     31 H2          -1.2570     2.3100     1.4510 ha         1 T0R       0.116500
     32 H3          -3.7230     0.6370     1.5630 h1         1 T0R       0.066700
     33 H4          -3.7170    -1.0670     2.0330 h1         1 T0R       0.066700
     34 H5          -4.2020    -1.6980    -0.3560 hc         1 T0R       0.066200
     35 H6          -4.2000    -0.0060    -0.7970 hc         1 T0R       0.066200
     36 H7          -2.6880    -2.9520     1.3290 ha         1 T0R       0.115000
     37 H8          -1.7490    -5.2000     1.1170 ha         1 T0R       0.112500
     38 H9          -0.1960    -5.7400    -0.7350 ha         1 T0R       0.112000
     39 H10          0.3880    -3.9890    -2.3890 ha         1 T0R       0.112500
     40 H11         -0.5440    -1.7250    -2.1720 ha         1 T0R       0.115000
     41 H12         -2.2080     4.5800     1.3220 ha         1 T0R       0.114000
     42 H13         -3.5560     5.2520    -0.6420 ha         1 T0R       0.113000
     43 H14         -3.9410     3.6360    -2.4770 ha         1 T0R       0.114000
     44 H15         -3.0020     1.3600    -2.3370 ha         1 T0R       0.116500
     45 H16          0.2350     1.6800    -1.9220 ha         1 T0R       0.117000
     46 H17          2.6850     1.6430    -1.8730 ha         1 T0R       0.122500
     47 H18          0.1300    -1.0480     1.3700 ha         1 T0R       0.117000
     48 H19          4.6710    -0.1790     1.6670 h1         1 T0R       0.034200
     49 H20          4.6310    -1.5320     0.5380 h1         1 T0R       0.034200
     50 H21          6.9130    -1.0000     0.9780 h1         1 T0R       0.041200
     51 H22          6.5320    -0.6690    -0.7060 h1         1 T0R       0.041200
     52 H24          7.2020     2.5870     1.7640 h1         1 T0R       0.030867
     53 H25          5.8160     1.5860     2.1560 h1         1 T0R       0.030867
     54 H26          7.4510     0.9740     2.4520 h1         1 T0R       0.030867
     55 H27          8.1540     0.8340    -1.2140 h1         1 T0R       0.030867
     56 H28          8.4920     2.2040    -0.1570 h1         1 T0R       0.030867
     57 H29          8.9310     0.5680     0.3550 h1         1 T0R       0.030867
@<TRIPOS>BOND
     1     1    22 ar  
     2     1    23 ar  
     3     1    30 1   
     4     2    14 ar  
     5     2    15 ar  
     6     2    31 1   
     7     3     4 1   
     8     4     5 1   
     9     4    32 1   
    10     4    33 1   
    11     5     6 1   
    12     5    34 1   
    13     5    35 1   
    14     6     7 1   
    15     6    13 2   
    16     7     8 ar  
    17     7    12 ar  
    18     8     9 ar  
    19     8    36 1   
    20     9    10 ar  
    21     9    37 1   
    22    10    11 ar  
    23    10    38 1   
    24    11    12 ar  
    25    11    39 1   
    26    12    40 1   
    27    13    14 1   
    28    13    19 1   
    29    14    18 ar  
    30    15    16 ar  
    31    15    41 1   
    32    16    17 ar  
    33    16    42 1   
    34    17    18 ar  
    35    17    43 1   
    36    18    44 1   
    37    19    20 ar  
    38    19    23 ar  
    39    20    21 ar  
    40    20    45 1   
    41    21    22 ar  
    42    21    46 1   
    43    22    24 1   
    44    23    47 1   
    45    24    25 1   
    46    25    26 1   
    47    25    48 1   
    48    25    49 1   
    49    26    27 1   
    50    26    50 1   
    51    26    51 1   
    52    27    28 1   
    53    27    29 1   
    54    28    52 1   
    55    28    53 1   
    56    28    54 1   
    57    29    55 1   
    58    29    56 1   
    59    29    57 1   
@<TRIPOS>SUBSTRUCTURE
     1 T0R         1 TEMP              0 ****  ****    0 ROOT
