@<TRIPOS>MOLECULE
T0S
   27    27     1     0     0
SMALL
No Charge or Current Charge


@<TRIPOS>ATOM
      1 C10          0.6840     1.1960     0.3450 ca         1 T0S      -0.010000
      2 C01         -5.0140     0.3520    -1.7440 c3         1 T0S      -0.180100
      3 C02         -4.1940     0.5990    -0.4850 c          1 T0S       0.602100
      4 C05         -2.6550    -0.5070     1.1710 c3         1 T0S       0.136300
      5 C06         -1.1960    -0.2990     0.7880 ca         1 T0S      -0.055300
      6 C07         -0.3690    -1.4050     0.5120 ca         1 T0S      -0.121500
      7 C08          0.9780    -1.2170     0.1550 ca         1 T0S      -0.010000
      8 C09          1.5100     0.0870     0.0710 ca         1 T0S      -0.270500
      9 C11         -0.6620     1.0000     0.7010 ca         1 T0S      -0.121500
     10 N04         -3.5250    -0.5030    -0.0080 ns         1 T0S      -0.508900
     11 N15          3.9550     0.4040     1.0820 n8         1 T0S      -1.003100
     12 O03         -4.1370     1.6930     0.0570 o          1 T0S      -0.606100
     13 O13          3.7720    -0.8760    -0.9850 o          1 T0S      -0.543500
     14 O14          3.4190     1.6690    -0.9620 o          1 T0S      -0.543500
     15 S12          3.2290     0.3390    -0.3830 sy         1 T0S       1.121600
     16 H101         1.0780     2.2100     0.2850 ha         1 T0S       0.138000
     17 H013        -4.3610    -0.0650    -2.5190 hc         1 T0S       0.062033
     18 H011        -5.7120    -0.4730    -1.5590 hc         1 T0S       0.062033
     19 H012        -5.5330     1.2510    -2.0930 hc         1 T0S       0.062033
     20 H051        -2.7660    -1.4690     1.6870 h1         1 T0S       0.069200
     21 H052        -2.9720     0.2780     1.8710 h1         1 T0S       0.069200
     22 H071        -0.7700    -2.4140     0.5710 ha         1 T0S       0.125000
     23 H081         1.5990    -2.0860    -0.0560 ha         1 T0S       0.138000
     24 H111        -1.2920     1.8620     0.9080 ha         1 T0S       0.125000
     25 H041        -3.6330    -1.3640    -0.5310 hn         1 T0S       0.315500
     26 H152         4.6900    -0.2890     0.9630 hn         1 T0S       0.474000
     27 H151         3.2770    -0.0610     1.6800 hn         1 T0S       0.474000
@<TRIPOS>BOND
     1     1     8 ar  
     2     1     9 ar  
     3     1    16 1   
     4     2     3 1   
     5     2    17 1   
     6     2    18 1   
     7     2    19 1   
     8     3    10 1   
     9     3    12 2   
    10     4     5 1   
    11     4    10 1   
    12     4    20 1   
    13     4    21 1   
    14     5     6 ar  
    15     5     9 ar  
    16     6     7 ar  
    17     6    22 1   
    18     7     8 ar  
    19     7    23 1   
    20     8    15 1   
    21     9    24 1   
    22    10    25 1   
    23    11    15 1   
    24    11    26 1   
    25    11    27 1   
    26    13    15 2   
    27    14    15 2   
@<TRIPOS>SUBSTRUCTURE
     1 T0S         1 TEMP              0 ****  ****    0 ROOT
