@<TRIPOS>MOLECULE
T0S
   27    27     1     0     0
SMALL
bcc


@<TRIPOS>ATOM
      1 C10          0.6290     0.8540    -0.0020 ca         1 T0S      -0.028000
      2 C01         -5.0710     0.8840    -1.4710 c3         1 T0S      -0.180100
      3 C02         -4.2350     0.6450    -0.2390 c          1 T0S       0.669100
      4 C05         -2.6360    -0.9040     0.8190 c3         1 T0S       0.136300
      5 C06         -1.1710    -0.6530     0.5620 ca         1 T0S      -0.055300
      6 C07         -0.2550    -1.6910     0.6720 ca         1 T0S      -0.139500
      7 C08          1.1000    -1.4740     0.4550 ca         1 T0S      -0.028000
      8 C09          1.5280    -0.2010     0.1200 ca         1 T0S      -0.270500
      9 C11         -0.7150     0.6220     0.2230 ca         1 T0S      -0.139500
     10 N04         -3.4830    -0.4700    -0.2650 ns         1 T0S      -0.575900
     11 N15          3.6190     1.0820     1.0870 n8         1 T0S      -0.892700
     12 O03         -4.2610     1.4120     0.7150 o          1 T0S      -0.606100
     13 O13          3.9400    -1.1810    -0.1450 o          1 T0S      -0.614300
     14 O14          3.3940     0.9190    -1.3810 o          1 T0S      -0.614300
     15 S12          3.2440     0.1010    -0.1850 sy         1 T0S       1.263200
     16 H101         0.9690     1.8480    -0.2600 ha         1 T0S       0.156000
     17 H013        -4.8760     0.1750    -2.2730 hc         1 T0S       0.062033
     18 H011        -6.1270     0.8230    -1.2050 hc         1 T0S       0.062033
     19 H012        -4.8880     1.8920    -1.8430 hc         1 T0S       0.062033
     20 H051        -2.7980    -1.9680     0.9910 h1         1 T0S       0.069200
     21 H052        -2.9460    -0.3850     1.7270 h1         1 T0S       0.069200
     22 H071        -0.5970    -2.6860     0.9290 ha         1 T0S       0.143000
     23 H081         1.8000    -2.2930     0.5430 ha         1 T0S       0.156000
     24 H111        -1.4120     1.4450     0.1410 ha         1 T0S       0.143000
     25 H041        -3.4930    -1.0390    -1.0970 hn         1 T0S       0.315500
     26 H152         4.4950     1.5750     0.9320 hn         1 T0S       0.418800
     27 H151         3.6470     0.5820     1.9700 hn         1 T0S       0.418800
@<TRIPOS>BOND
     1     1     8 ar  
     2     1     9 ar  
     3     1    16 1   
     4     2     3 1   
     5     2    17 1   
     6     2    18 1   
     7     2    19 1   
     8     3    10 1   
     9     3    12 2   
    10     4     5 1   
    11     4    10 1   
    12     4    20 1   
    13     4    21 1   
    14     5     6 ar  
    15     5     9 ar  
    16     6     7 ar  
    17     6    22 1   
    18     7     8 ar  
    19     7    23 1   
    20     8    15 1   
    21     9    24 1   
    22    10    25 1   
    23    11    15 1   
    24    11    26 1   
    25    11    27 1   
    26    13    15 2   
    27    14    15 2   
@<TRIPOS>SUBSTRUCTURE
     1 T0S         1 TEMP              0 ****  ****    0 ROOT
