@<TRIPOS>MOLECULE
T0U
   27    28     1     0     0
SMALL
No Charge or Current Charge


@<TRIPOS>ATOM
      1 C1           5.8240    -0.0470    17.3610 ca         1 T0U      -0.067750
      2 C2           4.9740     0.5000    18.3380 ca         1 T0U      -0.168250
      3 C3           3.8180    -0.1950    18.7310 ca         1 T0U       0.131100
      4 C4           3.5120    -1.4330    18.1480 ca         1 T0U      -0.168250
      5 C5           4.3600    -1.9820    17.1700 ca         1 T0U      -0.067750
      6 C6           5.5230    -1.2920    16.7730 ca         1 T0U      -0.113800
      7 O1           4.8920    -0.2070    10.4810 oh         1 T0U      -0.539100
      8 C7           6.4400    -1.8820    15.7090 c3         1 T0U       0.028200
      9 C8           6.0320    -1.4350    14.3110 ca         1 T0U      -0.113800
     10 C9           6.5700    -0.2570    13.7570 ca         1 T0U      -0.067750
     11 C10          6.1880     0.1580    12.4680 ca         1 T0U      -0.168250
     12 C11          5.2670    -0.6020    11.7300 ca         1 T0U       0.131100
     13 C12          4.7270    -1.7750    12.2780 ca         1 T0U      -0.168250
     14 C13          5.1060    -2.1920    13.5660 ca         1 T0U      -0.067750
     15 O2           2.9890     0.3290    19.6770 oh         1 T0U      -0.539100
     16 H1           6.7170     0.4970    17.0590 ha         1 T0U       0.112500
     17 H2           5.2190     1.4610    18.7840 ha         1 T0U       0.120500
     18 H3           2.6160    -1.9690    18.4510 ha         1 T0U       0.120500
     19 H4           4.1130    -2.9410    16.7210 ha         1 T0U       0.112500
     20 H5           5.3650     0.6250    10.2640 ho         1 T0U       0.461500
     21 H6           6.4310    -2.9770    15.7710 hc         1 T0U       0.052200
     22 H7           7.4800    -1.5910    15.9080 hc         1 T0U       0.052200
     23 H8           7.2820     0.3380    14.3240 ha         1 T0U       0.112500
     24 H9           6.6110     1.0690    12.0520 ha         1 T0U       0.120500
     25 H10          4.0120    -2.3620    11.7070 ha         1 T0U       0.120500
     26 H11          4.6800    -3.1010    13.9850 ha         1 T0U       0.112500
     27 H12          3.3570     1.1900    19.9700 ho         1 T0U       0.461500
@<TRIPOS>BOND
     1     1     2 ar  
     2     1     6 ar  
     3     1    16 1   
     4     2     3 ar  
     5     2    17 1   
     6     3     4 ar  
     7     3    15 1   
     8     4     5 ar  
     9     4    18 1   
    10     5     6 ar  
    11     5    19 1   
    12     6     8 1   
    13     7    12 1   
    14     7    20 1   
    15     8     9 1   
    16     8    21 1   
    17     8    22 1   
    18     9    10 ar  
    19     9    14 ar  
    20    10    11 ar  
    21    10    23 1   
    22    11    12 ar  
    23    11    24 1   
    24    12    13 ar  
    25    13    14 ar  
    26    13    25 1   
    27    14    26 1   
    28    15    27 1   
@<TRIPOS>SUBSTRUCTURE
     1 T0U         1 TEMP              0 ****  ****    0 ROOT
