@<TRIPOS>MOLECULE
T0U
   27    28     1     0     0
SMALL
abcg2


@<TRIPOS>ATOM
      1 C1           6.0180    -0.2260    17.5980 ca         1 T0U      -0.067750
      2 C2           5.1950     0.3640    18.5530 ca         1 T0U      -0.168250
      3 C3           3.8820    -0.0740    18.6980 ca         1 T0U       0.131100
      4 C4           3.4020    -1.1010    17.8860 ca         1 T0U      -0.168250
      5 C5           4.2360    -1.6770    16.9390 ca         1 T0U      -0.067750
      6 C6           5.5570    -1.2520    16.7760 ca         1 T0U      -0.113800
      7 O1           4.8100    -0.3810    10.4750 oh         1 T0U      -0.539100
      8 C7           6.4430    -1.8700    15.7160 c3         1 T0U       0.028200
      9 C8           6.0370    -1.4740    14.3130 ca         1 T0U      -0.113800
     10 C9           6.2660    -0.1800    13.8430 ca         1 T0U      -0.067750
     11 C10          5.8690     0.2080    12.5700 ca         1 T0U      -0.168250
     12 C11          5.2250    -0.7070    11.7360 ca         1 T0U       0.131100
     13 C12          4.9900    -2.0020    12.1850 ca         1 T0U      -0.168250
     14 C13          5.3960    -2.3730    13.4620 ca         1 T0U      -0.067750
     15 O2           3.0250     0.4650    19.6180 oh         1 T0U      -0.539100
     16 H1           7.0380     0.1230    17.4930 ha         1 T0U       0.112500
     17 H2           5.5710     1.1610    19.1850 ha         1 T0U       0.120500
     18 H3           2.3800    -1.4400    18.0070 ha         1 T0U       0.120500
     19 H4           3.8500    -2.4720    16.3110 ha         1 T0U       0.112500
     20 H5           5.0350     0.5400    10.2840 ho         1 T0U       0.461500
     21 H6           6.4090    -2.9590    15.7980 hc         1 T0U       0.052200
     22 H7           7.4760    -1.5670    15.8990 hc         1 T0U       0.052200
     23 H8           6.7610     0.5410    14.4820 ha         1 T0U       0.112500
     24 H9           6.0580     1.2160    12.2180 ha         1 T0U       0.120500
     25 H10          4.4940    -2.7090    11.5320 ha         1 T0U       0.120500
     26 H11          5.2080    -3.3850    13.8020 ha         1 T0U       0.112500
     27 H12          3.4750     1.1610    20.1150 ho         1 T0U       0.461500
@<TRIPOS>BOND
     1     1     2 ar  
     2     1     6 ar  
     3     1    16 1   
     4     2     3 ar  
     5     2    17 1   
     6     3     4 ar  
     7     3    15 1   
     8     4     5 ar  
     9     4    18 1   
    10     5     6 ar  
    11     5    19 1   
    12     6     8 1   
    13     7    12 1   
    14     7    20 1   
    15     8     9 1   
    16     8    21 1   
    17     8    22 1   
    18     9    10 ar  
    19     9    14 ar  
    20    10    11 ar  
    21    10    23 1   
    22    11    12 ar  
    23    11    24 1   
    24    12    13 ar  
    25    13    14 ar  
    26    13    25 1   
    27    14    26 1   
    28    15    27 1   
@<TRIPOS>SUBSTRUCTURE
     1 T0U         1 TEMP              0 ****  ****    0 ROOT
