@<TRIPOS>MOLECULE
T0V
   27    28     1     0     0
SMALL
abcg2


@<TRIPOS>ATOM
      1 C10          3.1650    -0.2750    -0.2140 cc         1 T0V       0.125300
      2 C13          4.5080     0.7230     1.1900 cc         1 T0V       0.125900
      3 C15         -2.8090     0.3650    -1.0300 ca         1 T0V      -0.152000
      4 C02         -4.0050     0.3460    -0.3380 ca         1 T0V       0.167000
      5 C03         -4.1550    -0.3080     0.8680 ca         1 T0V      -0.149000
      6 C04         -3.0490    -0.9670     1.3900 ca         1 T0V      -0.089000
      7 C05         -1.8370    -0.9680     0.7150 ca         1 T0V      -0.104000
      8 C06         -1.7080    -0.3040    -0.5040 ca         1 T0V      -0.063300
      9 C07         -0.4120    -0.3290    -1.2700 c3         1 T0V       0.201100
     10 C09          1.9910    -0.3280    -1.1220 c3         1 T0V       0.133500
     11 C11          4.0870    -1.1960     0.1550 cd         1 T0V      -0.166000
     12 C12          4.9680    -0.5430     1.0730 cd         1 T0V      -0.187000
     13 N08          0.7360    -0.2340    -0.3900 n7         1 T0V      -0.855400
     14 O14          3.4180     0.8980     0.4130 os         1 T0V      -0.247000
     15 H131         4.8370     1.5750     1.7630 h4         1 T0V       0.051100
     16 H151        -2.7340     0.9030    -1.9680 ha         1 T0V       0.128000
     17 H031        -5.1050    -0.3040     1.3870 ha         1 T0V       0.131000
     18 H041        -3.1400    -1.4870     2.3340 ha         1 T0V       0.117000
     19 H051        -0.9840    -1.4840     1.1350 ha         1 T0V       0.136000
     20 H072        -0.3430    -1.2780    -1.8120 h1         1 T0V       0.039700
     21 H071        -0.4310     0.4560    -2.0410 h1         1 T0V       0.039700
     22 H092         2.0850     0.4460    -1.9010 h1         1 T0V       0.047700
     23 H091         2.0200    -1.2880    -1.6400 h1         1 T0V       0.047700
     24 H111         4.1350    -2.2180    -0.1840 ha         1 T0V       0.141000
     25 H121         5.8250    -0.9640     1.5730 ha         1 T0V       0.142000
     26 H1           0.7000     0.6550     0.0950 hn         1 T0V       0.422000
     27 F01         -5.0600     0.9960    -0.8620 f          1 T0V      -0.182000
@<TRIPOS>BOND
     1     1    10 1   
     2     1    11 2   
     3     1    14 1   
     4     2    12 2   
     5     2    14 1   
     6     2    15 1   
     7     3     4 ar  
     8     3     8 ar  
     9     3    16 1   
    10     4     5 ar  
    11     4    27 1   
    12     5     6 ar  
    13     5    17 1   
    14     6     7 ar  
    15     6    18 1   
    16     7     8 ar  
    17     7    19 1   
    18     8     9 1   
    19     9    13 1   
    20     9    20 1   
    21     9    21 1   
    22    10    13 1   
    23    10    22 1   
    24    10    23 1   
    25    11    12 1   
    26    11    24 1   
    27    12    25 1   
    28    13    26 1   
@<TRIPOS>SUBSTRUCTURE
     1 T0V         1 TEMP              0 ****  ****    0 ROOT
