@<TRIPOS>MOLECULE
T0V
   27    28     1     0     0
SMALL
No Charge or Current Charge


@<TRIPOS>ATOM
      1 C10          3.1780    -0.1870    -0.2330 cc         1 T0V       0.125300
      2 C13          4.5710     1.1660     0.8310 cc         1 T0V       0.125900
      3 C15         -2.4420     0.6840    -0.6050 ca         1 T0V      -0.152000
      4 C02         -3.6290     0.8550     0.1250 ca         1 T0V       0.167000
      5 C03         -4.1210    -0.1790     0.9350 ca         1 T0V      -0.149000
      6 C04         -3.4200    -1.3950     1.0170 ca         1 T0V      -0.089000
      7 C05         -2.2300    -1.5690     0.2870 ca         1 T0V      -0.104000
      8 C06         -1.7340    -0.5320    -0.5290 ca         1 T0V      -0.063300
      9 C07         -0.4460    -0.7260    -1.3190 c3         1 T0V       0.201100
     10 C09          2.0380    -0.5450    -1.1580 c3         1 T0V       0.133500
     11 C11          4.0100    -0.9760     0.5130 cd         1 T0V      -0.166000
     12 C12          4.8970    -0.1140     1.1900 cd         1 T0V      -0.187000
     13 N08          0.7270    -0.4270    -0.4790 n7         1 T0V      -0.855400
     14 O14          3.5100     1.1390    -0.0480 os         1 T0V      -0.247000
     15 H131         4.9810     2.1280     1.1070 h4         1 T0V       0.051100
     16 H151        -2.0750     1.4960    -1.2280 ha         1 T0V       0.128000
     17 H031        -5.0410    -0.0380     1.4970 ha         1 T0V       0.131000
     18 H041        -3.7960    -2.2000     1.6460 ha         1 T0V       0.117000
     19 H051        -1.6880    -2.5100     0.3580 ha         1 T0V       0.136000
     20 H072        -0.4010    -1.7620    -1.6850 h1         1 T0V       0.039700
     21 H071        -0.4640    -0.0700    -2.2010 h1         1 T0V       0.039700
     22 H092         2.0800     0.1200    -2.0320 h1         1 T0V       0.047700
     23 H091         2.1910    -1.5710    -1.5200 h1         1 T0V       0.047700
     24 H111         3.9840    -2.0590     0.5680 ha         1 T0V       0.141000
     25 H121         5.6920    -0.4020     1.8710 ha         1 T0V       0.142000
     26 H1           0.6310     0.5380    -0.1390 hn         1 T0V       0.422000
     27 F01         -4.3020     2.0240     0.0460 f          1 T0V      -0.182000
@<TRIPOS>BOND
     1     1    10 1   
     2     1    11 2   
     3     1    14 1   
     4     2    12 2   
     5     2    14 1   
     6     2    15 1   
     7     3     4 ar  
     8     3     8 ar  
     9     3    16 1   
    10     4     5 ar  
    11     4    27 1   
    12     5     6 ar  
    13     5    17 1   
    14     6     7 ar  
    15     6    18 1   
    16     7     8 ar  
    17     7    19 1   
    18     8     9 1   
    19     9    13 1   
    20     9    20 1   
    21     9    21 1   
    22    10    13 1   
    23    10    22 1   
    24    10    23 1   
    25    11    12 1   
    26    11    24 1   
    27    12    25 1   
    28    13    26 1   
@<TRIPOS>SUBSTRUCTURE
     1 T0V         1 TEMP              0 ****  ****    0 ROOT
