@<TRIPOS>MOLECULE
T0W
   37    39     1     0     0
SMALL
abcg2


@<TRIPOS>ATOM
      1 C4          12.8730     0.5410    22.8300 cc         1 T0W      -0.199300
      2 C14          6.6960     1.9300    20.7560 ca         1 T0W      -0.110000
      3 C5          13.6730    -0.6380    22.9890 cc         1 T0W      -0.183000
      4 C6          14.8160    -0.4120    22.3030 cd         1 T0W       0.118900
      5 C11          6.4260     2.5370    17.9710 ca         1 T0W      -0.027000
      6 C7          13.6080     1.3760    22.0580 cd         1 T0W       0.163900
      7 C8           9.9550     0.4450    21.5840 c          1 T0W       0.586100
      8 C9           8.8670    -0.4270    20.9480 c3         1 T0W       0.002600
      9 C10          7.2940     1.5340    18.4140 ca         1 T0W       0.015400
     10 C12          5.7120     3.2160    18.9310 ca         1 T0W      -0.139000
     11 C13          5.8470     2.9160    20.3040 ca         1 T0W      -0.077000
     12 N1          10.4760     0.0040    22.7400 n          1 T0W      -0.409800
     13 N2           8.3060     0.2290    19.8050 na         1 T0W       0.075600
     14 C3          11.5110     0.8020    23.3870 c3         1 T0W       0.181300
     15 N3           8.7150    -0.0620    18.5740 nc         1 T0W      -0.154400
     16 C1           8.9910    -0.9740    24.4710 c3         1 T0W      -0.117100
     17 C15          7.4140     1.2460    19.7740 ca         1 T0W      -0.064200
     18 C2          10.0580    -1.2180    23.4160 c3         1 T0W       0.103000
     19 N4           8.1250     0.6920    17.7300 nd         1 T0W      -0.216400
     20 O1          14.7890     0.8110    21.7360 os         1 T0W      -0.233000
     21 O2          10.3030     1.4800    21.0400 o          1 T0W      -0.575100
     22 H2          13.4270    -1.5280    23.5470 ha         1 T0W       0.136000
     23 H3          15.7030    -1.0040    22.1410 h4         1 T0W       0.052100
     24 H4           6.3220     2.7660    16.9190 ha         1 T0W       0.133000
     25 H5          13.4210     2.3680    21.6790 h4         1 T0W       0.063100
     26 H6           8.0660    -0.6460    21.6550 h1         1 T0W       0.085200
     27 H7           9.2800    -1.3810    20.6170 h1         1 T0W       0.085200
     28 H8           5.0290     4.0010    18.6340 ha         1 T0W       0.117000
     29 H9           5.2640     3.4800    21.0200 ha         1 T0W       0.114000
     30 H10         11.2660     1.8600    23.2980 h1         1 T0W       0.060700
     31 H11         11.4880     0.5660    24.4510 h1         1 T0W       0.060700
     32 H12          8.7400    -1.9090    24.9720 hc         1 T0W       0.043367
     33 H13          9.3350    -0.2720    25.2310 hc         1 T0W       0.043367
     34 H14          8.0780    -0.5730    24.0300 hc         1 T0W       0.043367
     35 H15          9.7140    -1.9500    22.6870 h1         1 T0W       0.050700
     36 H16         10.9420    -1.6620    23.8750 h1         1 T0W       0.050700
     37 H1           6.7950     1.7050    21.8100 ha         1 T0W       0.120000
@<TRIPOS>BOND
     1     1     3 1   
     2     1     6 2   
     3     1    14 1   
     4     2    11 ar  
     5     2    17 ar  
     6     2    37 1   
     7     3     4 2   
     8     3    22 1   
     9     4    20 1   
    10     4    23 1   
    11     5     9 ar  
    12     5    10 ar  
    13     5    24 1   
    14     6    20 1   
    15     6    25 1   
    16     7     8 1   
    17     7    12 1   
    18     7    21 2   
    19     8    13 1   
    20     8    26 1   
    21     8    27 1   
    22     9    17 ar  
    23     9    19 1   
    24    10    11 ar  
    25    10    28 1   
    26    11    29 1   
    27    12    14 1   
    28    12    18 1   
    29    13    15 1   
    30    13    17 1   
    31    14    30 1   
    32    14    31 1   
    33    15    19 2   
    34    16    18 1   
    35    16    32 1   
    36    16    33 1   
    37    16    34 1   
    38    18    35 1   
    39    18    36 1   
@<TRIPOS>SUBSTRUCTURE
     1 T0W         1 TEMP              0 ****  ****    0 ROOT
