@<TRIPOS>MOLECULE
T0W
   37    39     1     0     0
SMALL
No Charge or Current Charge


@<TRIPOS>ATOM
      1 C4          12.9450     0.5060    22.9400 cc         1 T0W      -0.199300
      2 C14          6.8090     1.9170    20.7590 ca         1 T0W      -0.110000
      3 C5          13.7410    -0.4280    23.6360 cc         1 T0W      -0.183000
      4 C6          14.9220    -0.5310    22.9560 cd         1 T0W       0.118900
      5 C11          6.0250     2.5530    18.1010 ca         1 T0W      -0.027000
      6 C7          13.7060     0.9110    21.8740 cd         1 T0W       0.163900
      7 C8          10.0910     0.5040    21.3360 c          1 T0W       0.586100
      8 C9           9.0070    -0.3470    20.6480 c3         1 T0W       0.002600
      9 C10          7.0080     1.5880    18.3650 ca         1 T0W       0.015400
     10 C12          5.4270     3.2090    19.2010 ca         1 T0W      -0.139000
     11 C13          5.8170     2.8930    20.5250 ca         1 T0W      -0.077000
     12 N1          10.5400     0.1170    22.6240 n          1 T0W      -0.409800
     13 N2           8.3370     0.3330    19.5290 na         1 T0W       0.075600
     14 C3          11.5550     0.9250    23.3340 c3         1 T0W       0.181300
     15 N3           8.5450     0.0390    18.1900 nc         1 T0W      -0.154400
     16 C1           8.9800    -0.9950    24.2550 c3         1 T0W      -0.117100
     17 C15          7.3740     1.2920    19.6380 ca         1 T0W      -0.064200
     18 C2          10.1430    -1.1620    23.2610 c3         1 T0W       0.103000
     19 N4           7.7340     0.8160    17.4680 nd         1 T0W      -0.216400
     20 O1          14.9350     0.2900    21.8530 os         1 T0W      -0.233000
     21 O2          10.5470     1.5070    20.7980 o          1 T0W      -0.575100
     22 H2          13.4610    -0.9610    24.5390 ha         1 T0W       0.136000
     23 H3          15.8020    -1.1310    23.1480 h4         1 T0W       0.052100
     24 H4           5.7340     2.7890    17.0800 ha         1 T0W       0.133000
     25 H5          13.4900     1.6150    21.0810 h4         1 T0W       0.063100
     26 H6           8.2470    -0.6150    21.3890 h1         1 T0W       0.085200
     27 H7           9.4770    -1.2670    20.2860 h1         1 T0W       0.085200
     28 H8           4.6620     3.9630    19.0280 ha         1 T0W       0.117000
     29 H9           5.3510     3.4040    21.3650 ha         1 T0W       0.114000
     30 H10         11.4120     1.9910    23.1130 h1         1 T0W       0.060700
     31 H11         11.4300     0.7990    24.4170 h1         1 T0W       0.060700
     32 H12          8.7230    -1.9610    24.7040 hc         1 T0W       0.043367
     33 H13          9.2560    -0.3050    25.0610 hc         1 T0W       0.043367
     34 H14          8.0890    -0.6010    23.7530 hc         1 T0W       0.043367
     35 H15          9.8770    -1.9070    22.5010 h1         1 T0W       0.050700
     36 H16         11.0070    -1.5680    23.8020 h1         1 T0W       0.050700
     37 H1           7.1200     1.6660    21.7710 ha         1 T0W       0.120000
@<TRIPOS>BOND
     1     1     3 1   
     2     1     6 2   
     3     1    14 1   
     4     2    11 ar  
     5     2    17 ar  
     6     2    37 1   
     7     3     4 2   
     8     3    22 1   
     9     4    20 1   
    10     4    23 1   
    11     5     9 ar  
    12     5    10 ar  
    13     5    24 1   
    14     6    20 1   
    15     6    25 1   
    16     7     8 1   
    17     7    12 1   
    18     7    21 2   
    19     8    13 1   
    20     8    26 1   
    21     8    27 1   
    22     9    17 ar  
    23     9    19 1   
    24    10    11 ar  
    25    10    28 1   
    26    11    29 1   
    27    12    14 1   
    28    12    18 1   
    29    13    15 1   
    30    13    17 1   
    31    14    30 1   
    32    14    31 1   
    33    15    19 2   
    34    16    18 1   
    35    16    32 1   
    36    16    33 1   
    37    16    34 1   
    38    18    35 1   
    39    18    36 1   
@<TRIPOS>SUBSTRUCTURE
     1 T0W         1 TEMP              0 ****  ****    0 ROOT
