@<TRIPOS>MOLECULE
T0X
   32    34     1     0     0
SMALL
No Charge or Current Charge


@<TRIPOS>ATOM
      1 C1          34.7690    81.2590   -10.3180 ca         1 T0X      -0.065300
      2 O1          38.0910    80.4850   -11.0980 o          1 T0X      -0.714500
      3 C2          36.0520    80.7560    -9.9650 ca         1 T0X      -0.093600
      4 C3          36.5170    80.8990    -8.6330 ca         1 T0X      -0.072000
      5 C4          35.7370    81.5230    -7.6260 cp         1 T0X      -0.065000
      6 C5          36.2530    81.6650    -6.2310 cp         1 T0X       0.020000
      7 C6          36.1440    82.8910    -5.5310 ca         1 T0X      -0.083000
      8 C7          36.6380    83.0230    -4.2230 ca         1 T0X      -0.117000
      9 C8          37.2560    81.9340    -3.5870 ca         1 T0X       0.133000
     10 C9          37.3850    80.7040    -4.2660 ca         1 T0X      -0.020000
     11 C10         36.8870    80.5800    -5.5790 ca         1 T0X      -0.062000
     12 C11         38.0140    79.5740    -3.6390 cg         1 T0X       0.343000
     13 C12         34.4610    81.9870    -8.0150 ca         1 T0X      -0.095800
     14 C13         33.4060    82.6110    -7.2690 cc         1 T0X      -0.252200
     15 C14         32.3540    82.8520    -8.1380 cd         1 T0X      -0.191100
     16 C15         33.9990    81.8630    -9.3030 ca         1 T0X      -0.053200
     17 C16         36.9480    80.0680   -10.9700 c          1 T0X       0.702600
     18 O           36.5220    79.0830   -11.5580 o          1 T0X      -0.714500
     19 N1          32.7180    82.3890    -9.4210 na         1 T0X      -0.237700
     20 C           34.2350    81.1610   -11.7480 c3         1 T0X      -0.031800
     21 N           38.5240    78.6480    -3.1410 n1         1 T0X      -0.469000
     22 Cl          37.8610    82.1500    -1.9410 cl         1 T0X      -0.212000
     23 H2          37.5060    80.5240    -8.3800 ha         1 T0X       0.125000
     24 H3          35.6830    83.7480    -6.0160 ha         1 T0X       0.129000
     25 H4          36.5460    83.9720    -3.7020 ha         1 T0X       0.121000
     26 H5          36.9800    79.6290    -6.1000 ha         1 T0X       0.142000
     27 H6          33.4020    82.8440    -6.2070 ha         1 T0X       0.188000
     28 H7          31.3840    83.3040    -7.9410 h4         1 T0X       0.193000
     29 H8          32.1510    82.4230   -10.2630 hn         1 T0X       0.340000
     30 H9          33.7830    80.1790   -11.9300 hc         1 T0X       0.037367
     31 H10         33.4730    81.9210   -11.9580 hc         1 T0X       0.037367
     32 H11         35.0310    81.3090   -12.4860 hc         1 T0X       0.037367
@<TRIPOS>BOND
     1     1     3 ar  
     2     1    16 ar  
     3     1    20 1   
     4     2    17 1   
     5     3     4 ar  
     6     3    17 1   
     7     4     5 ar  
     8     4    23 1   
     9     5     6 1   
    10     5    13 ar  
    11     6     7 ar  
    12     6    11 ar  
    13     7     8 ar  
    14     7    24 1   
    15     8     9 ar  
    16     8    25 1   
    17     9    10 ar  
    18     9    22 1   
    19    10    11 ar  
    20    10    12 1   
    21    11    26 1   
    22    12    21 3   
    23    13    14 1   
    24    13    16 ar  
    25    14    15 2   
    26    14    27 1   
    27    15    19 1   
    28    15    28 1   
    29    16    19 1   
    30    17    18 1   
    31    19    29 1   
    32    20    30 1   
    33    20    31 1   
    34    20    32 1   
@<TRIPOS>SUBSTRUCTURE
     1 T0X         1 TEMP              0 ****  ****    0 ROOT
