@<TRIPOS>MOLECULE
T0X
   32    34     1     0     0
SMALL
abcg2


@<TRIPOS>ATOM
      1 C1          34.7870    81.2400   -10.3180 ca         1 T0X      -0.065300
      2 O1          38.1540    80.4500   -10.9380 o          1 T0X      -0.714500
      3 C2          36.0340    80.7550    -9.9210 ca         1 T0X      -0.093600
      4 C3          36.4740    80.9180    -8.5930 ca         1 T0X      -0.072000
      5 C4          35.7140    81.5310    -7.6050 cp         1 T0X      -0.065000
      6 C5          36.2330    81.6570    -6.2290 cp         1 T0X       0.020000
      7 C6          36.0610    82.8330    -5.4860 ca         1 T0X      -0.083000
      8 C7          36.5600    82.9620    -4.1990 ca         1 T0X      -0.117000
      9 C8          37.2480    81.9090    -3.6190 ca         1 T0X       0.133000
     10 C9          37.4390    80.7220    -4.3370 ca         1 T0X      -0.020000
     11 C10         36.9280    80.6070    -5.6330 ca         1 T0X      -0.062000
     12 C11         38.1370    79.6200    -3.7610 cg         1 T0X       0.343000
     13 C12         34.4440    82.0250    -7.9760 ca         1 T0X      -0.095800
     14 C13         33.3660    82.6710    -7.2820 cc         1 T0X      -0.252200
     15 C14         32.3700    82.8880    -8.1980 cd         1 T0X      -0.191100
     16 C15         34.0270    81.8690    -9.3240 ca         1 T0X      -0.053200
     17 C16         36.9670    80.0340   -10.8850 c          1 T0X       0.702600
     18 O           36.4900    79.0680   -11.5340 o          1 T0X      -0.714500
     19 N1          32.7670    82.4160    -9.4260 na         1 T0X      -0.237700
     20 C           34.2420    81.1420   -11.7150 c3         1 T0X      -0.031800
     21 N           38.7020    78.7210    -3.3110 n1         1 T0X      -0.469000
     22 CL          37.8710    82.0670    -2.0040 cl         1 T0X      -0.212000
     23 H2          37.4650    80.5610    -8.3460 ha         1 T0X       0.125000
     24 H3          35.5450    83.6740    -5.9300 ha         1 T0X       0.129000
     25 H4          36.4230    83.8820    -3.6470 ha         1 T0X       0.121000
     26 H5          37.0690    79.6770    -6.1650 ha         1 T0X       0.142000
     27 H6          33.3240    82.9400    -6.2400 ha         1 T0X       0.188000
     28 H7          31.4030    83.3450    -8.0740 h4         1 T0X       0.193000
     29 H8          32.2000    82.4280   -10.2570 hn         1 T0X       0.340000
     30 H9          33.4540    80.3840   -11.7760 hc         1 T0X       0.037367
     31 H10         33.7980    82.0920   -12.0230 hc         1 T0X       0.037367
     32 H11         35.0150    80.8700   -12.4280 hc         1 T0X       0.037367
@<TRIPOS>BOND
     1     1     3 ar  
     2     1    16 ar  
     3     1    20 1   
     4     2    17 1   
     5     3     4 ar  
     6     3    17 1   
     7     4     5 ar  
     8     4    23 1   
     9     5     6 1   
    10     5    13 ar  
    11     6     7 ar  
    12     6    11 ar  
    13     7     8 ar  
    14     7    24 1   
    15     8     9 ar  
    16     8    25 1   
    17     9    10 ar  
    18     9    22 1   
    19    10    11 ar  
    20    10    12 1   
    21    11    26 1   
    22    12    21 3   
    23    13    14 1   
    24    13    16 ar  
    25    14    15 2   
    26    14    27 1   
    27    15    19 1   
    28    15    28 1   
    29    16    19 1   
    30    17    18 1   
    31    19    29 1   
    32    20    30 1   
    33    20    31 1   
    34    20    32 1   
@<TRIPOS>SUBSTRUCTURE
     1 T0X         1 TEMP              0 ****  ****    0 ROOT
