@<TRIPOS>MOLECULE
T0Y
   28    29     1     0     0
SMALL
abcg2


@<TRIPOS>ATOM
      1 C13          3.0460     1.2160     0.5460 c6         1 T0Y      -0.090400
      2 C02          3.4860    -0.2030     0.8690 c6         1 T0Y       0.169300
      3 C03          2.2550    -1.0620     1.1370 c6         1 T0Y      -0.090400
      4 C04          1.2360    -0.9540     0.0140 c6         1 T0Y       0.171800
      5 C07         -1.5530     0.1230    -0.6200 cc         1 T0Y      -0.112300
      6 C08         -2.6550    -0.2570    -1.4420 cc         1 T0Y      -0.131000
      7 C09         -3.7740    -0.5570    -0.7290 cd         1 T0Y      -0.244000
      8 C11         -1.8770     0.0950     0.7030 cd         1 T0Y      -0.217000
      9 C12          1.9940     1.2500    -0.5530 c6         1 T0Y       0.171800
     10 N05          0.8470     0.4300    -0.1980 n3         1 T0Y      -0.727600
     11 O01          4.2340    -0.6830    -0.2340 oh         1 T0Y      -0.663000
     12 S10         -3.5030    -0.3900     0.9550 ss         1 T0Y       0.181000
     13 H131         2.6310     1.6610     1.4540 hc         1 T0Y       0.051200
     14 H132         3.9050     1.8250     0.2560 hc         1 T0Y       0.051200
     15 H021         4.1120    -0.1860     1.7720 h1         1 T0Y       0.030700
     16 H031         2.5420    -2.1080     1.2810 hc         1 T0Y       0.051200
     17 H032         1.7960    -0.7330     2.0740 hc         1 T0Y       0.051200
     18 H041         1.6430    -1.4000    -0.9100 h1         1 T0Y       0.037200
     19 H042         0.3500    -1.5360     0.2760 h1         1 T0Y       0.037200
     20 H061        -0.0080    -0.0070    -2.0930 h1         1 T0Y       0.039200
     21 H062        -0.2940     1.6010    -1.4640 h1         1 T0Y       0.039200
     22 H081        -2.6080    -0.3040    -2.5220 ha         1 T0Y       0.131000
     23 H091        -4.7360    -0.8710    -1.1020 h4         1 T0Y       0.148000
     24 H111        -1.2360     0.3250     1.5400 h4         1 T0Y       0.161000
     25 H121         1.6530     2.2790    -0.6930 h1         1 T0Y       0.037200
     26 H122         2.4400     0.9350    -1.5110 h1         1 T0Y       0.037200
     27 H011         4.4490    -1.6070    -0.0710 ho         1 T0Y       0.439000
     28 C06         -0.2200     0.5500    -1.1650 c3         1 T0Y       0.238100
@<TRIPOS>BOND
     1     1     2 1   
     2     1     9 1   
     3     1    13 1   
     4     1    14 1   
     5     2     3 1   
     6     2    11 1   
     7     2    15 1   
     8     3     4 1   
     9     3    16 1   
    10     3    17 1   
    11     4    10 1   
    12     4    18 1   
    13     4    19 1   
    14     5     6 1   
    15     5     8 2   
    16     5    28 1   
    17     6     7 2   
    18     6    22 1   
    19     7    12 1   
    20     7    23 1   
    21     8    12 1   
    22     8    24 1   
    23     9    10 1   
    24     9    25 1   
    25     9    26 1   
    26    10    28 1   
    27    11    27 1   
    28    20    28 1   
    29    21    28 1   
@<TRIPOS>SUBSTRUCTURE
     1 T0Y         1 TEMP              0 ****  ****    0 ROOT
