@<TRIPOS>MOLECULE
T0Y
   28    29     1     0     0
SMALL
No Charge or Current Charge


@<TRIPOS>ATOM
      1 C13          3.1990     1.1190     0.5340 c6         1 T0Y      -0.090400
      2 C02          3.5090    -0.3860     0.7090 c6         1 T0Y       0.169300
      3 C03          2.2080    -1.1600     1.0270 c6         1 T0Y      -0.090400
      4 C04          1.0890    -0.8530     0.0020 c6         1 T0Y       0.171800
      5 C07         -1.6310     0.3370    -0.5260 cc         1 T0Y      -0.112300
      6 C08         -2.3240    -0.6400    -1.2910 cc         1 T0Y      -0.131000
      7 C09         -3.4950    -1.0750    -0.7300 cd         1 T0Y      -0.244000
      8 C11         -2.2940     0.6470     0.6370 cd         1 T0Y      -0.217000
      9 C12          2.0530     1.3550    -0.4790 c6         1 T0Y       0.171800
     10 N05          0.8210     0.6110    -0.0950 n3         1 T0Y      -0.727600
     11 O01          4.1390    -0.9100    -0.4670 oh         1 T0Y      -0.663000
     12 S10         -3.7990    -0.2700     0.8160 ss         1 T0Y       0.181000
     13 H131         2.9150     1.5470     1.5040 hc         1 T0Y       0.051200
     14 H132         4.1000     1.6570     0.2110 hc         1 T0Y       0.051200
     15 H021         4.1950    -0.4970     1.5620 h1         1 T0Y       0.030700
     16 H031         2.4020    -2.2400     1.0580 hc         1 T0Y       0.051200
     17 H032         1.8580    -0.8810     2.0300 hc         1 T0Y       0.051200
     18 H041         1.3780    -1.2530    -0.9820 h1         1 T0Y       0.037200
     19 H042         0.1820    -1.3930     0.3130 h1         1 T0Y       0.037200
     20 H061        -0.1060     0.5760    -2.0090 h1         1 T0Y       0.039200
     21 H062        -0.4490     2.0180    -1.0520 h1         1 T0Y       0.039200
     22 H081        -1.9430    -1.0050    -2.2410 ha         1 T0Y       0.131000
     23 H091        -4.1950    -1.8080    -1.1140 h4         1 T0Y       0.148000
     24 H111        -1.9940     1.3490     1.4050 h4         1 T0Y       0.161000
     25 H121         1.8460     2.4340    -0.5270 h1         1 T0Y       0.037200
     26 H122         2.3870     1.0480    -1.4820 h1         1 T0Y       0.037200
     27 H011         4.4230    -1.8250    -0.2510 ho         1 T0Y       0.439000
     28 C06         -0.3190     0.9280    -0.9900 c3         1 T0Y       0.238100
@<TRIPOS>BOND
     1     1     2 1   
     2     1     9 1   
     3     1    13 1   
     4     1    14 1   
     5     2     3 1   
     6     2    11 1   
     7     2    15 1   
     8     3     4 1   
     9     3    16 1   
    10     3    17 1   
    11     4    10 1   
    12     4    18 1   
    13     4    19 1   
    14     5     6 1   
    15     5     8 2   
    16     5    28 1   
    17     6     7 2   
    18     6    22 1   
    19     7    12 1   
    20     7    23 1   
    21     8    12 1   
    22     8    24 1   
    23     9    10 1   
    24     9    25 1   
    25     9    26 1   
    26    10    28 1   
    27    11    27 1   
    28    20    28 1   
    29    21    28 1   
@<TRIPOS>SUBSTRUCTURE
     1 T0Y         1 TEMP              0 ****  ****    0 ROOT
