@<TRIPOS>MOLECULE
T10
   62    64     1     0     0
SMALL
No Charge or Current Charge


@<TRIPOS>ATOM
      1 O1          -7.0060    -0.0500     3.6630 oh         1 T10      -0.628000
      2 C6          -6.3350     0.5020     2.5020 c3         1 T10       0.060600
      3 C7          -5.1530    -0.3690     1.9800 c          1 T10       0.561100
      4 O8          -5.0480    -1.5660     2.2420 o          1 T10      -0.478100
      5 C9          -4.1020     0.3760     1.1070 c3         1 T10       0.016700
      6 C10         -4.6810     0.7790    -0.2760 c3         1 T10      -0.041100
      7 C11         -3.6450     1.4150    -1.1990 ca         1 T10      -0.090300
      8 C12         -2.9710     0.6350    -2.1600 ca         1 T10      -0.106500
      9 C13         -1.9960     1.2160    -2.9890 ca         1 T10      -0.103500
     10 C14         -1.6920     2.5820    -2.8660 ca         1 T10      -0.103000
     11 C15         -2.3630     3.3660    -1.9130 ca         1 T10      -0.103500
     12 C16         -3.3360     2.7840    -1.0810 ca         1 T10      -0.106500
     13 N17         -2.8620    -0.4250     0.9610 ns         1 T10      -0.486900
     14 C18         -1.5800     0.0910     0.9840 c          1 T10       0.597100
     15 O19         -1.3550     1.2570     1.2860 o          1 T10      -0.606100
     16 C20         -0.4610    -0.9160     0.5980 c3         1 T10       0.046700
     17 C21         -0.1960    -1.9320     1.7400 c3         1 T10      -0.056100
     18 C22          0.8890    -2.9490     1.4040 ca         1 T10      -0.087300
     19 C23          2.2050    -2.7710     1.8770 ca         1 T10      -0.097500
     20 C24          3.2060    -3.7040     1.5560 ca         1 T10      -0.108000
     21 C25          2.8980    -4.8210     0.7610 ca         1 T10      -0.106000
     22 C26          1.5880    -5.0040     0.2880 ca         1 T10      -0.108000
     23 C27          0.5870    -4.0700     0.6080 ca         1 T10      -0.097500
     24 N28          0.7750    -0.1910     0.2320 ns         1 T10      -0.478900
     25 C29          1.6190    -0.5390    -0.7840 c          1 T10       0.641100
     26 O30          1.4420    -1.4590    -1.5660 o          1 T10      -0.541000
     27 O31          2.6600     0.3360    -0.8050 os         1 T10      -0.454100
     28 C32          3.6650     0.1420    -1.8130 c3         1 T10       0.229900
     29 C33          4.7310     1.2150    -1.6400 ca         1 T10      -0.099300
     30 C34          5.8320     0.9920    -0.7900 ca         1 T10      -0.085000
     31 C35          6.8170     1.9820    -0.6310 ca         1 T10      -0.115500
     32 C36          6.7070     3.2020    -1.3200 ca         1 T10      -0.098000
     33 C37          5.6100     3.4310    -2.1680 ca         1 T10      -0.115500
     34 C38          4.6250     2.4410    -2.3280 ca         1 T10      -0.085000
     35 HO1         -7.7380     0.5620     3.9040 ho         1 T10       0.447000
     36 HC61        -7.0430     0.6240     1.6710 h1         1 T10       0.041700
     37 HC62        -5.9350     1.4970     2.7360 h1         1 T10       0.041700
     38 HC9         -3.8550     1.2980     1.6490 h1         1 T10       0.077700
     39 H101        -5.1050    -0.1120    -0.7560 hc         1 T10       0.063700
     40 H102        -5.5200     1.4700    -0.1330 hc         1 T10       0.063700
     41 H12         -3.1950    -0.4250    -2.2590 ha         1 T10       0.109500
     42 H13         -1.4750     0.6070    -3.7250 ha         1 T10       0.115500
     43 H14         -0.9370     3.0320    -3.5070 ha         1 T10       0.116000
     44 H15         -2.1270     4.4240    -1.8150 ha         1 T10       0.115500
     45 H16         -3.8440     3.3970    -0.3390 ha         1 T10       0.109500
     46 H17         -2.9530    -1.4110     0.7380 hn         1 T10       0.330500
     47 H20         -0.8210    -1.4620    -0.2830 h1         1 T10       0.091700
     48 H211         0.0740    -1.3800     2.6500 hc         1 T10       0.066700
     49 H212        -1.1290    -2.4590     1.9780 hc         1 T10       0.066700
     50 H23          2.4540    -1.9070     2.4890 ha         1 T10       0.110500
     51 H24          4.2200    -3.5600     1.9220 ha         1 T10       0.111500
     52 H25          3.6730    -5.5430     0.5120 ha         1 T10       0.112000
     53 H26          1.3480    -5.8680    -0.3290 ha         1 T10       0.111500
     54 H27         -0.4240    -4.2180     0.2330 ha         1 T10       0.110500
     55 H28          1.0330     0.6340     0.7590 hn         1 T10       0.338500
     56 H321         4.1250    -0.8510    -1.7170 h1         1 T10       0.057200
     57 H322         3.2280     0.2150    -2.8180 h1         1 T10       0.057200
     58 H34          5.9230     0.0510    -0.2500 ha         1 T10       0.114500
     59 H35          7.6650     1.8050     0.0270 ha         1 T10       0.113500
     60 H36          7.4700     3.9680    -1.1970 ha         1 T10       0.113000
     61 H37          5.5230     4.3750    -2.7010 ha         1 T10       0.113500
     62 H38          3.7770     2.6270    -2.9840 ha         1 T10       0.114500
@<TRIPOS>BOND
     1     1     2 1   
     2     1    35 1   
     3     2     3 1   
     4     2    36 1   
     5     2    37 1   
     6     3     4 2   
     7     3     5 1   
     8     5     6 1   
     9     5    13 1   
    10     5    38 1   
    11     6     7 1   
    12     6    39 1   
    13     6    40 1   
    14     7     8 ar  
    15     7    12 ar  
    16     8     9 ar  
    17     8    41 1   
    18     9    10 ar  
    19     9    42 1   
    20    10    11 ar  
    21    10    43 1   
    22    11    12 ar  
    23    11    44 1   
    24    12    45 1   
    25    13    14 1   
    26    13    46 1   
    27    14    15 2   
    28    14    16 1   
    29    16    17 1   
    30    16    24 1   
    31    16    47 1   
    32    17    18 1   
    33    17    48 1   
    34    17    49 1   
    35    18    19 ar  
    36    18    23 ar  
    37    19    20 ar  
    38    19    50 1   
    39    20    21 ar  
    40    20    51 1   
    41    21    22 ar  
    42    21    52 1   
    43    22    23 ar  
    44    22    53 1   
    45    23    54 1   
    46    24    25 1   
    47    24    55 1   
    48    25    26 2   
    49    25    27 1   
    50    27    28 1   
    51    28    29 1   
    52    28    56 1   
    53    28    57 1   
    54    29    30 ar  
    55    29    34 ar  
    56    30    31 ar  
    57    30    58 1   
    58    31    32 ar  
    59    31    59 1   
    60    32    33 ar  
    61    32    60 1   
    62    33    34 ar  
    63    33    61 1   
    64    34    62 1   
@<TRIPOS>SUBSTRUCTURE
     1 T10         1 TEMP              0 ****  ****    0 ROOT
