@<TRIPOS>MOLECULE
T10
   62    64     1     0     0
SMALL
abcg2


@<TRIPOS>ATOM
      1 O1          -4.9190     1.0970     4.2450 oh         1 T10      -0.628000
      2 C6          -4.6200     1.5060     2.9480 c3         1 T10       0.060600
      3 C7          -4.0030     0.3750     2.1760 c          1 T10       0.561100
      4 O8          -3.6790    -0.6720     2.6740 o          1 T10      -0.478100
      5 C9          -3.8410     0.6450     0.6830 c3         1 T10       0.016700
      6 C10         -5.0640     0.0880    -0.0610 c3         1 T10      -0.041100
      7 C11         -5.0230     0.4120    -1.5300 ca         1 T10      -0.090300
      8 C12         -4.7070    -0.5640    -2.4690 ca         1 T10      -0.106500
      9 C13         -4.6420    -0.2540    -3.8220 ca         1 T10      -0.103500
     10 C14         -4.8950     1.0410    -4.2520 ca         1 T10      -0.103000
     11 C15         -5.2140     2.0230    -3.3210 ca         1 T10      -0.103500
     12 C16         -5.2770     1.7100    -1.9720 ca         1 T10      -0.106500
     13 N17         -2.6380     0.0350     0.1820 ns         1 T10      -0.486900
     14 C18         -1.4410     0.3670     0.6810 c          1 T10       0.597100
     15 O19         -1.2980     1.2520     1.5110 o          1 T10      -0.606100
     16 C20         -0.2760    -0.4850     0.2030 c3         1 T10       0.046700
     17 C21         -0.1220    -1.6820     1.1700 c3         1 T10      -0.056100
     18 C22          1.0790    -2.5100     0.8210 ca         1 T10      -0.087300
     19 C23          2.3190    -2.2370     1.3940 ca         1 T10      -0.097500
     20 C24          3.4490    -2.9490     1.0150 ca         1 T10      -0.108000
     21 C25          3.3520    -3.9530     0.0610 ca         1 T10      -0.106000
     22 C26          2.1170    -4.2430    -0.5060 ca         1 T10      -0.108000
     23 C27          0.9920    -3.5240    -0.1300 ca         1 T10      -0.097500
     24 N28          0.9150     0.3180     0.1500 ns         1 T10      -0.478900
     25 C29          1.8700     0.1090    -0.7830 c          1 T10       0.641100
     26 O30          1.7300    -0.5360    -1.8000 o          1 T10      -0.541000
     27 O31          2.9970     0.7430    -0.4480 os         1 T10      -0.454100
     28 C32          4.1200     0.5670    -1.3170 c3         1 T10       0.229900
     29 C33          5.3000     1.1880    -0.6330 ca         1 T10      -0.099300
     30 C34          5.9550     0.5010     0.3870 ca         1 T10      -0.085000
     31 C35          7.0330     1.0750     1.0440 ca         1 T10      -0.115500
     32 C36          7.4680     2.3460     0.6870 ca         1 T10      -0.098000
     33 C37          6.8210     3.0370    -0.3280 ca         1 T10      -0.115500
     34 C38          5.7400     2.4590    -0.9830 ca         1 T10      -0.085000
     35 HO1         -5.2490     1.8600     4.7280 ho         1 T10       0.447000
     36 HC61        -5.4990     1.8640     2.3920 h1         1 T10       0.041700
     37 HC62        -3.8920     2.3310     2.9090 h1         1 T10       0.041700
     38 HC9         -3.8000     1.7280     0.5230 h1         1 T10       0.077700
     39 H101        -5.1150    -0.9930     0.0900 hc         1 T10       0.063700
     40 H102        -5.9650     0.5110     0.3880 hc         1 T10       0.063700
     41 H12         -4.5160    -1.5810    -2.1440 ha         1 T10       0.109500
     42 H13         -4.3980    -1.0260    -4.5400 ha         1 T10       0.115500
     43 H14         -4.8480     1.2840    -5.3050 ha         1 T10       0.116000
     44 H15         -5.4180     3.0350    -3.6480 ha         1 T10       0.115500
     45 H16         -5.5280     2.4820    -1.2530 ha         1 T10       0.109500
     46 H17         -2.7080    -0.7030    -0.5010 hn         1 T10       0.330500
     47 H20         -0.4750    -0.8610    -0.8020 h1         1 T10       0.091700
     48 H211        -0.0340    -1.2990     2.1900 hc         1 T10       0.066700
     49 H212        -1.0320    -2.2850     1.1320 hc         1 T10       0.066700
     50 H23          2.4030    -1.4620     2.1470 ha         1 T10       0.110500
     51 H24          4.4060    -2.7230     1.4690 ha         1 T10       0.111500
     52 H25          4.2310    -4.5120    -0.2340 ha         1 T10       0.112000
     53 H26          2.0320    -5.0300    -1.2440 ha         1 T10       0.111500
     54 H27          0.0330    -3.7520    -0.5820 ha         1 T10       0.110500
     55 H28          1.1750     0.8090     0.9930 hn         1 T10       0.338500
     56 H321         4.2930    -0.4970    -1.4930 h1         1 T10       0.057200
     57 H322         3.9300     1.0430    -2.2810 h1         1 T10       0.057200
     58 H34          5.6240    -0.4940     0.6630 ha         1 T10       0.114500
     59 H35          7.5370     0.5290     1.8310 ha         1 T10       0.113500
     60 H36          8.3110     2.7950     1.1970 ha         1 T10       0.113000
     61 H37          7.1550     4.0270    -0.6110 ha         1 T10       0.113500
     62 H38          5.2380     3.0050    -1.7730 ha         1 T10       0.114500
@<TRIPOS>BOND
     1     1     2 1   
     2     1    35 1   
     3     2     3 1   
     4     2    36 1   
     5     2    37 1   
     6     3     4 2   
     7     3     5 1   
     8     5     6 1   
     9     5    13 1   
    10     5    38 1   
    11     6     7 1   
    12     6    39 1   
    13     6    40 1   
    14     7     8 ar  
    15     7    12 ar  
    16     8     9 ar  
    17     8    41 1   
    18     9    10 ar  
    19     9    42 1   
    20    10    11 ar  
    21    10    43 1   
    22    11    12 ar  
    23    11    44 1   
    24    12    45 1   
    25    13    14 1   
    26    13    46 1   
    27    14    15 2   
    28    14    16 1   
    29    16    17 1   
    30    16    24 1   
    31    16    47 1   
    32    17    18 1   
    33    17    48 1   
    34    17    49 1   
    35    18    19 ar  
    36    18    23 ar  
    37    19    20 ar  
    38    19    50 1   
    39    20    21 ar  
    40    20    51 1   
    41    21    22 ar  
    42    21    52 1   
    43    22    23 ar  
    44    22    53 1   
    45    23    54 1   
    46    24    25 1   
    47    24    55 1   
    48    25    26 2   
    49    25    27 1   
    50    27    28 1   
    51    28    29 1   
    52    28    56 1   
    53    28    57 1   
    54    29    30 ar  
    55    29    34 ar  
    56    30    31 ar  
    57    30    58 1   
    58    31    32 ar  
    59    31    59 1   
    60    32    33 ar  
    61    32    60 1   
    62    33    34 ar  
    63    33    61 1   
    64    34    62 1   
@<TRIPOS>SUBSTRUCTURE
     1 T10         1 TEMP              0 ****  ****    0 ROOT
