@<TRIPOS>MOLECULE
T11
   30    31     1     0     0
SMALL
abcg2


@<TRIPOS>ATOM
      1 F17         -4.8570   -22.2660   -24.8670 f          1 T11      -0.109333
      2 C14         -5.8240   -22.3690   -23.9540 c3         1 T11       0.321000
      3 F15         -5.3150   -23.0180   -22.9020 f          1 T11      -0.109333
      4 F16         -6.1240   -21.1320   -23.5500 f          1 T11      -0.109333
      5 C13         -7.0560   -23.0790   -24.4770 cx         1 T11       0.251700
      6 N19         -6.9040   -24.1660   -25.3860 n5         1 T11      -0.588700
      7 N18         -7.3030   -22.8520   -25.8640 n5         1 T11      -0.588700
      8 C1          -8.1660   -23.1710   -23.4850 ca         1 T11      -0.138300
      9 C6          -9.0730   -22.1270   -23.3450 ca         1 T11      -0.078000
     10 C5         -10.1050   -22.2180   -22.4230 ca         1 T11      -0.114500
     11 C4         -10.2470   -23.3400   -21.6100 ca         1 T11       0.002700
     12 C3          -9.3290   -24.3780   -21.7590 ca         1 T11      -0.114500
     13 C2          -8.3010   -24.3000   -22.6850 ca         1 T11      -0.078000
     14 C7         -11.3610   -23.4480   -20.6110 c3         1 T11      -0.028100
     15 CA         -12.5360   -24.3120   -21.0990 c3         1 T11       0.015500
     16 N          -13.0810   -23.7570   -22.3260 n8         1 T11      -0.999200
     17 C          -13.5480   -24.4990   -19.9330 c          1 T11       0.694000
     18 O          -14.6920   -24.0290   -20.0860 o          1 T11      -0.729000
     19 OXT        -13.1120   -25.1040   -18.9310 o          1 T11      -0.729000
     20 HN19        -5.9380   -24.3050   -25.6690 hn         1 T11       0.427000
     21 HN18        -8.3020   -22.8990   -26.0410 hn         1 T11       0.427000
     22 H6          -8.9890   -21.2420   -23.9640 ha         1 T11       0.106500
     23 H5         -10.8060   -21.3990   -22.3270 ha         1 T11       0.120500
     24 H3          -9.4190   -25.2640   -21.1400 ha         1 T11       0.120500
     25 H2          -7.6050   -25.1230   -22.7880 ha         1 T11       0.106500
     26 H71        -10.9790   -23.8780   -19.6850 hc         1 T11       0.055200
     27 H72        -11.7330   -22.4470   -20.3670 hc         1 T11       0.055200
     28 HA         -12.1310   -25.3030   -21.3390 h1         1 T11       0.040700
     29 H          -13.7910   -24.3870   -22.6790 hn         1 T11       0.383500
     30 HN2        -13.5910   -22.9130   -22.0900 hn         1 T11       0.383500
@<TRIPOS>BOND
     1     1     2 1   
     2     2     3 1   
     3     2     4 1   
     4     2     5 1   
     5     5     6 1   
     6     5     7 1   
     7     5     8 1   
     8     6     7 1   
     9     6    20 1   
    10     7    21 1   
    11     8     9 ar  
    12     8    13 ar  
    13     9    10 ar  
    14     9    22 1   
    15    10    11 ar  
    16    10    23 1   
    17    11    12 ar  
    18    11    14 1   
    19    12    13 ar  
    20    12    24 1   
    21    13    25 1   
    22    14    15 1   
    23    14    26 1   
    24    14    27 1   
    25    15    16 1   
    26    15    17 1   
    27    15    28 1   
    28    16    29 1   
    29    16    30 1   
    30    17    18 1   
    31    17    19 1   
@<TRIPOS>SUBSTRUCTURE
     1 T11         1 TEMP              0 ****  ****    0 ROOT
