@<TRIPOS>MOLECULE
T11
   30    31     1     0     0
SMALL
No Charge or Current Charge


@<TRIPOS>ATOM
      1 F17         -4.6690   -22.3710   -24.8460 f          1 T11      -0.109333
      2 C14         -5.6600   -22.3610   -23.9220 c3         1 T11       0.321000
      3 F15         -5.1960   -22.9940   -22.8190 f          1 T11      -0.109333
      4 F16         -5.8930   -21.0700   -23.5870 f          1 T11      -0.109333
      5 C13         -6.9490   -23.0440   -24.4560 cx         1 T11       0.251700
      6 N19         -6.9340   -24.1780   -25.4320 n5         1 T11      -0.588700
      7 N18         -7.4430   -22.9220   -25.8600 n5         1 T11      -0.588700
      8 C1          -8.1120   -23.1270   -23.4980 ca         1 T11      -0.138300
      9 C6          -9.0010   -22.0420   -23.3600 ca         1 T11      -0.078000
     10 C5         -10.0740   -22.1110   -22.4540 ca         1 T11      -0.114500
     11 C4         -10.2750   -23.2640   -21.6710 ca         1 T11       0.002700
     12 C3          -9.3800   -24.3440   -21.8000 ca         1 T11      -0.114500
     13 C2          -8.3070   -24.2770   -22.7060 ca         1 T11      -0.078000
     14 C7         -11.4260   -23.3350   -20.6690 c3         1 T11      -0.028100
     15 CA         -12.5420   -24.3430   -21.0570 c3         1 T11       0.015500
     16 N          -13.1920   -23.9580   -22.3650 n8         1 T11      -0.999200
     17 C          -13.5220   -24.5620   -19.8320 c          1 T11       0.694000
     18 O          -14.3460   -23.6920   -19.5830 o          1 T11      -0.729000
     19 OXT        -13.4900   -25.6380   -19.2500 o          1 T11      -0.729000
     20 HN19        -5.9740   -24.3200   -25.7960 hn         1 T11       0.427000
     21 HN18        -8.4800   -22.9310   -25.8550 hn         1 T11       0.427000
     22 H6          -8.8590   -21.1400   -23.9520 ha         1 T11       0.106500
     23 H5         -10.7500   -21.2650   -22.3600 ha         1 T11       0.120500
     24 H3          -9.5150   -25.2370   -21.1950 ha         1 T11       0.120500
     25 H2          -7.6240   -25.1190   -22.7900 ha         1 T11       0.106500
     26 H71        -11.0230   -23.6240   -19.6910 hc         1 T11       0.055200
     27 H72        -11.8720   -22.3430   -20.5240 hc         1 T11       0.055200
     28 HA         -12.0520   -25.3120   -21.2280 h1         1 T11       0.040700
     29 H          -13.8820   -24.6760   -22.6200 hn         1 T11       0.383500
     30 HN2        -13.7730   -23.1260   -22.2040 hn         1 T11       0.383500
@<TRIPOS>BOND
     1     1     2 1   
     2     2     3 1   
     3     2     4 1   
     4     2     5 1   
     5     5     6 1   
     6     5     7 1   
     7     5     8 1   
     8     6     7 1   
     9     6    20 1   
    10     7    21 1   
    11     8     9 ar  
    12     8    13 ar  
    13     9    10 ar  
    14     9    22 1   
    15    10    11 ar  
    16    10    23 1   
    17    11    12 ar  
    18    11    14 1   
    19    12    13 ar  
    20    12    24 1   
    21    13    25 1   
    22    14    15 1   
    23    14    26 1   
    24    14    27 1   
    25    15    16 1   
    26    15    17 1   
    27    15    28 1   
    28    16    29 1   
    29    16    30 1   
    30    17    18 1   
    31    17    19 1   
@<TRIPOS>SUBSTRUCTURE
     1 T11         1 TEMP              0 ****  ****    0 ROOT
