@<TRIPOS>MOLECULE
T12
   56    58     1     0     0
SMALL
No Charge or Current Charge


@<TRIPOS>ATOM
      1 O56          2.1360    15.2400     3.0410 o          1 T12      -0.394500
      2 N54          1.8590    14.1220     2.5880 no         1 T12       0.695200
      3 O55          0.9280    13.9170     1.7970 o          1 T12      -0.394500
      4 C13          2.6930    12.9540     3.0210 ca         1 T12      -0.186200
      5 C12          3.7600    13.1410     3.9280 ca         1 T12      -0.025000
      6 C11          4.5410    12.0470     4.3290 ca         1 T12      -0.126000
      7 C10          4.2700    10.7610     3.8370 ca         1 T12      -0.016000
      8 C14          2.4230    11.6540     2.5260 ca         1 T12      -0.029000
      9 C15          3.2080    10.5420     2.9310 ca         1 T12      -0.164600
     10 C51          2.9560     9.1310     2.4270 c          1 T12       0.630700
     11 O53          3.6920     8.2090     2.7470 o          1 T12      -0.512100
     12 N50          1.8670     8.9650     1.5980 ns         1 T12      -0.424400
     13 C21          1.4240     7.8250     0.9680 cc         1 T12       0.491400
     14 N22          2.0070     6.6150     1.0320 nd         1 T12      -0.560100
     15 C3           1.2100     5.8110     0.2210 ca         1 T12       0.095400
     16 C4           1.3770     4.4490    -0.0640 ca         1 T12      -0.048000
     17 C5           0.4560     3.8260    -0.9310 ca         1 T12       0.084100
     18 O23          0.6040     2.4840    -1.1980 os         1 T12      -0.357200
     19 C24          0.5180     1.9250    -2.4500 c          1 T12       0.595100
     20 O26          0.4510     2.5800    -3.4830 o          1 T12      -0.459000
     21 C25          0.6150     0.3690    -2.4050 c3         1 T12      -0.096000
     22 C35         -0.5830    -0.1950    -1.5920 c3         1 T12      -0.082767
     23 C31          0.5740    -0.2210    -3.8440 c3         1 T12      -0.082767
     24 C27          1.9490    -0.0510    -1.7250 c3         1 T12      -0.082767
     25 C6          -0.6260     4.5630    -1.4770 ca         1 T12      -0.098000
     26 C2           0.1710     6.5150    -0.3190 ca         1 T12      -0.079200
     27 C1          -0.7760     5.9330    -1.1760 ca         1 T12      -0.100000
     28 N20          0.2910     7.7910     0.1500 na         1 T12      -0.205600
     29 C39         -0.6420     8.8780    -0.2010 c3         1 T12       0.081600
     30 C40         -0.2380     9.6120    -1.4950 c3         1 T12      -0.110400
     31 C43         -1.2100    10.7480    -1.8610 c3         1 T12       0.167600
     32 O46         -0.7730    11.3810    -3.0660 oh         1 T12      -0.654000
     33 H12          3.9920    14.1280     4.3260 ha         1 T12       0.156000
     34 H11          5.3620    12.1970     5.0270 ha         1 T12       0.137000
     35 H10          4.8950     9.9330     4.1690 ha         1 T12       0.149000
     36 H14          1.6040    11.5250     1.8240 ha         1 T12       0.153000
     37 HN50         1.3310     9.8000     1.4340 hn         1 T12       0.329500
     38 H4           2.2010     3.8890     0.3680 ha         1 T12       0.144000
     39 H351        -0.5660     0.1650    -0.5560 hc         1 T12       0.044589
     40 H352        -1.5360     0.1120    -2.0400 hc         1 T12       0.044589
     41 H353        -0.5580    -1.2910    -1.5650 hc         1 T12       0.044589
     42 H311        -0.3580     0.0520    -4.3540 hc         1 T12       0.044589
     43 H312         0.6370    -1.3160    -3.8210 hc         1 T12       0.044589
     44 H313         1.4130     0.1510    -4.4460 hc         1 T12       0.044589
     45 H271         1.9950     0.2990    -0.6860 hc         1 T12       0.044589
     46 H272         2.0560    -1.1430    -1.7140 hc         1 T12       0.044589
     47 H273         2.8080     0.3690    -2.2610 hc         1 T12       0.044589
     48 H6          -1.3500     4.0760    -2.1260 ha         1 T12       0.125000
     49 H1          -1.5990     6.5080    -1.5940 ha         1 T12       0.120000
     50 H391        -0.6840     9.5940     0.6290 h1         1 T12       0.055700
     51 H392        -1.6500     8.4590    -0.3170 h1         1 T12       0.055700
     52 H401        -0.1990     8.8920    -2.3210 hc         1 T12       0.071700
     53 H402         0.7710    10.0250    -1.3790 hc         1 T12       0.071700
     54 H431        -1.2450    11.4760    -1.0400 h1         1 T12       0.016200
     55 H432        -2.2190    10.3350    -1.9930 h1         1 T12       0.016200
     56 HO46        -1.4190    12.0940    -3.2650 ho         1 T12       0.448000
@<TRIPOS>BOND
     1     1     2 1   
     2     2     3 1   
     3     2     4 1   
     4     4     5 ar  
     5     4     8 ar  
     6     5     6 ar  
     7     5    33 1   
     8     6     7 ar  
     9     6    34 1   
    10     7     9 ar  
    11     7    35 1   
    12     8     9 ar  
    13     8    36 1   
    14     9    10 1   
    15    10    11 2   
    16    10    12 1   
    17    12    13 1   
    18    12    37 1   
    19    13    14 2   
    20    13    28 1   
    21    14    15 1   
    22    15    16 ar  
    23    15    26 ar  
    24    16    17 ar  
    25    16    38 1   
    26    17    18 1   
    27    17    25 ar  
    28    18    19 1   
    29    19    20 2   
    30    19    21 1   
    31    21    22 1   
    32    21    23 1   
    33    21    24 1   
    34    22    39 1   
    35    22    40 1   
    36    22    41 1   
    37    23    42 1   
    38    23    43 1   
    39    23    44 1   
    40    24    45 1   
    41    24    46 1   
    42    24    47 1   
    43    25    27 ar  
    44    25    48 1   
    45    26    27 ar  
    46    26    28 1   
    47    27    49 1   
    48    28    29 1   
    49    29    30 1   
    50    29    50 1   
    51    29    51 1   
    52    30    31 1   
    53    30    52 1   
    54    30    53 1   
    55    31    32 1   
    56    31    54 1   
    57    31    55 1   
    58    32    56 1   
@<TRIPOS>SUBSTRUCTURE
     1 T12         1 TEMP              0 ****  ****    0 ROOT
