@<TRIPOS>MOLECULE
T12
   56    58     1     0     0
SMALL
abcg2


@<TRIPOS>ATOM
      1 O56          1.7390    13.8900     5.3910 o          1 T12      -0.394500
      2 N54          1.4870    12.8530     4.8270 no         1 T12       0.695200
      3 O55          0.4570    12.2380     4.9670 o          1 T12      -0.394500
      4 C13          2.4890    12.3100     3.9190 ca         1 T12      -0.186200
      5 C12          3.6900    12.9820     3.7570 ca         1 T12      -0.025000
      6 C11          4.6420    12.4410     2.9070 ca         1 T12      -0.126000
      7 C10          4.3910    11.2540     2.2390 ca         1 T12      -0.016000
      8 C14          2.2110    11.1290     3.2500 ca         1 T12      -0.029000
      9 C15          3.1700    10.6010     2.3960 ca         1 T12      -0.164600
     10 C51          2.9630     9.3140     1.6680 c          1 T12       0.630700
     11 O53          3.8890     8.5880     1.3860 o          1 T12      -0.512100
     12 N50          1.6610     9.0490     1.3370 ns         1 T12      -0.424400
     13 C21          1.2180     7.8740     0.7670 cc         1 T12       0.491400
     14 N22          1.7340     6.6950     0.9570 nd         1 T12      -0.560100
     15 C3           0.9610     5.8550     0.1980 ca         1 T12       0.095400
     16 C4           1.0610     4.4770     0.0160 ca         1 T12      -0.048000
     17 C5           0.1240     3.8830    -0.8050 ca         1 T12       0.084100
     18 O23          0.1570     2.5090    -0.9640 os         1 T12      -0.357200
     19 C24          0.7360     2.0090    -2.0710 c          1 T12       0.595100
     20 O26          1.2440     2.7100    -2.9010 o          1 T12      -0.459000
     21 C25          0.6590     0.4930    -2.1030 c3         1 T12      -0.096000
     22 C35         -0.8010     0.0480    -1.9430 c3         1 T12      -0.082767
     23 C31          1.2080    -0.0110    -3.4340 c3         1 T12      -0.082767
     24 C27          1.5040    -0.0680    -0.9500 c3         1 T12      -0.082767
     25 C6          -0.8880     4.6060    -1.4430 ca         1 T12      -0.098000
     26 C2          -0.0550     6.5780    -0.4450 ca         1 T12      -0.079200
     27 C1          -0.9930     5.9750    -1.2690 ca         1 T12      -0.100000
     28 N20          0.1310     7.8840    -0.0550 na         1 T12      -0.205600
     29 C39         -0.5840     9.0330    -0.5760 c3         1 T12       0.081600
     30 C40          0.1230     9.6600    -1.7700 c3         1 T12      -0.110400
     31 C43         -0.6670    10.8350    -2.3140 c3         1 T12       0.167600
     32 O46          0.0330    11.3750    -3.4110 oh         1 T12      -0.654000
     33 H12          3.8930    13.9050     4.2800 ha         1 T12       0.156000
     34 H11          5.5860    12.9490     2.7710 ha         1 T12       0.137000
     35 H10          5.1450    10.8380     1.5850 ha         1 T12       0.149000
     36 H14          1.2720    10.6210     3.4220 ha         1 T12       0.153000
     37 HN50         0.9830     9.7860     1.4620 hn         1 T12       0.329500
     38 H4           1.8350     3.8970     0.5000 ha         1 T12       0.144000
     39 H351        -1.2120     0.3150    -0.9700 hc         1 T12       0.044589
     40 H352        -1.4390     0.4810    -2.7150 hc         1 T12       0.044589
     41 H353        -0.8570    -1.0370    -2.0390 hc         1 T12       0.044589
     42 H311         0.6400     0.3770    -4.2810 hc         1 T12       0.044589
     43 H312         1.1420    -1.1000    -3.4630 hc         1 T12       0.044589
     44 H313         2.2540     0.2600    -3.5730 hc         1 T12       0.044589
     45 H271         1.1440     0.2640     0.0240 hc         1 T12       0.044589
     46 H272         1.4570    -1.1570    -0.9700 hc         1 T12       0.044589
     47 H273         2.5520     0.2210    -1.0450 hc         1 T12       0.044589
     48 H6          -1.6010     4.0880    -2.0710 ha         1 T12       0.125000
     49 H1          -1.7760     6.5350    -1.7620 ha         1 T12       0.120000
     50 H391        -0.7290     9.7610     0.2240 h1         1 T12       0.055700
     51 H392        -1.5840     8.6950    -0.8490 h1         1 T12       0.055700
     52 H401         0.2490     8.9060    -2.5510 hc         1 T12       0.071700
     53 H402         1.1210     9.9940    -1.4720 hc         1 T12       0.071700
     54 H431        -0.8050    11.5800    -1.5200 h1         1 T12       0.016200
     55 H432        -1.6700    10.4930    -2.6040 h1         1 T12       0.016200
     56 HO46        -0.4810    12.1080    -3.7620 ho         1 T12       0.448000
@<TRIPOS>BOND
     1     1     2 1   
     2     2     3 1   
     3     2     4 1   
     4     4     5 ar  
     5     4     8 ar  
     6     5     6 ar  
     7     5    33 1   
     8     6     7 ar  
     9     6    34 1   
    10     7     9 ar  
    11     7    35 1   
    12     8     9 ar  
    13     8    36 1   
    14     9    10 1   
    15    10    11 2   
    16    10    12 1   
    17    12    13 1   
    18    12    37 1   
    19    13    14 2   
    20    13    28 1   
    21    14    15 1   
    22    15    16 ar  
    23    15    26 ar  
    24    16    17 ar  
    25    16    38 1   
    26    17    18 1   
    27    17    25 ar  
    28    18    19 1   
    29    19    20 2   
    30    19    21 1   
    31    21    22 1   
    32    21    23 1   
    33    21    24 1   
    34    22    39 1   
    35    22    40 1   
    36    22    41 1   
    37    23    42 1   
    38    23    43 1   
    39    23    44 1   
    40    24    45 1   
    41    24    46 1   
    42    24    47 1   
    43    25    27 ar  
    44    25    48 1   
    45    26    27 ar  
    46    26    28 1   
    47    27    49 1   
    48    28    29 1   
    49    29    30 1   
    50    29    50 1   
    51    29    51 1   
    52    30    31 1   
    53    30    52 1   
    54    30    53 1   
    55    31    32 1   
    56    31    54 1   
    57    31    55 1   
    58    32    56 1   
@<TRIPOS>SUBSTRUCTURE
     1 T12         1 TEMP              0 ****  ****    0 ROOT
