@<TRIPOS>MOLECULE
T13
   31    32     1     0     0
SMALL
No Charge or Current Charge


@<TRIPOS>ATOM
      1 CAA          5.2770    -2.0410     0.5740 c3         1 T13       0.144900
      2 OAN          4.8670    -1.2160    -0.5310 os         1 T13      -0.319100
      3 CAV          3.7740    -0.3700    -0.4600 ca         1 T13       0.115100
      4 CAP          3.4390     0.4050    -1.5910 ca         1 T13       0.149000
      5 CAL          2.3380     1.2760    -1.5640 ca         1 T13      -0.146000
      6 FAD          4.1790     0.3170    -2.7200 f          1 T13      -0.160000
      7 CAK          2.9850    -0.2550     0.7060 ca         1 T13      -0.171000
      8 CAJ          1.8830     0.6210     0.7270 ca         1 T13      -0.055000
      9 CAO          1.5490     1.3880    -0.4090 ca         1 T13       0.214000
     10 NAM          0.4590     2.2590    -0.4330 nu         1 T13      -0.885100
     11 SAX         -0.9090     2.3170     0.5390 sy         1 T13       1.173600
     12 OAB         -0.4010     2.6890     1.8600 o          1 T13      -0.510000
     13 OAC         -1.7930     3.1960    -0.2270 o          1 T13      -0.510000
     14 CAW         -1.5550     0.6530     0.5120 ca         1 T13      -0.356500
     15 CAT         -1.6800    -0.1200     1.6880 ca         1 T13       0.264000
     16 FAH         -1.3300     0.3730     2.8970 f          1 T13      -0.123500
     17 CAR         -2.1840    -1.4340     1.6250 ca         1 T13       0.076000
     18 FAF         -2.3010    -2.1710     2.7560 f          1 T13      -0.129500
     19 CAQ         -2.5670    -1.9820     0.3900 ca         1 T13       0.193000
     20 FAE         -3.0500    -3.2460     0.3320 f          1 T13      -0.120000
     21 CAS         -2.4490    -1.2210    -0.7830 ca         1 T13       0.076000
     22 FAG         -2.8180    -1.7530    -1.9740 f          1 T13      -0.129500
     23 CAU         -1.9470     0.0910    -0.7220 ca         1 T13       0.264000
     24 FAI         -1.8360     0.7980    -1.8710 f          1 T13      -0.123500
     25 HAA          5.5350    -1.4260     1.4460 h1         1 T13       0.048033
     26 HAAA         4.4780    -2.7380     0.8580 h1         1 T13       0.048033
     27 HAAB         6.1610    -2.6300     0.3010 h1         1 T13       0.048033
     28 HAL          2.1010     1.8610    -2.4480 ha         1 T13       0.135000
     29 HAK          3.2100    -0.8290     1.6010 ha         1 T13       0.131000
     30 HAJ          1.2980     0.7000     1.6380 ha         1 T13       0.148000
     31 HNAM         0.2060     2.6940    -1.3110 hn         1 T13       0.508000
@<TRIPOS>BOND
     1     1     2 1   
     2     1    25 1   
     3     1    26 1   
     4     1    27 1   
     5     2     3 1   
     6     3     4 ar  
     7     3     7 ar  
     8     4     5 ar  
     9     4     6 1   
    10     5     9 ar  
    11     5    28 1   
    12     7     8 ar  
    13     7    29 1   
    14     8     9 ar  
    15     8    30 1   
    16     9    10 1   
    17    10    11 1   
    18    10    31 1   
    19    11    12 2   
    20    11    13 2   
    21    11    14 1   
    22    14    15 ar  
    23    14    23 ar  
    24    15    16 1   
    25    15    17 ar  
    26    17    18 1   
    27    17    19 ar  
    28    19    20 1   
    29    19    21 ar  
    30    21    22 1   
    31    21    23 ar  
    32    23    24 1   
@<TRIPOS>SUBSTRUCTURE
     1 T13         1 TEMP              0 ****  ****    0 ROOT
