@<TRIPOS>MOLECULE
T13
   31    32     1     0     0
SMALL
bcc


@<TRIPOS>ATOM
      1 CAA          5.3780    -1.7230     0.7250 c3         1 T13       0.121700
      2 OAN          4.3880    -1.6030    -0.2820 os         1 T13      -0.295900
      3 CAV          3.4910    -0.6170    -0.1710 ca         1 T13       0.115100
      4 CAP          2.5610    -0.5020    -1.2080 ca         1 T13       0.113900
      5 CAL          1.5820     0.4590    -1.2130 ca         1 T13      -0.164000
      6 FAD          2.6350    -1.3740    -2.2210 f          1 T13      -0.124900
      7 CAK          3.4080     0.2970     0.8730 ca         1 T13      -0.189000
      8 CAJ          2.4360     1.2900     0.8740 ca         1 T13      -0.073000
      9 CAO          1.5210     1.3730    -0.1610 ca         1 T13       0.075600
     10 NAM          0.5210     2.3810    -0.1580 nu         1 T13      -0.691500
     11 SAX         -0.7800     2.2050     0.8370 sy         1 T13       1.315200
     12 OAB         -0.3040     2.1430     2.1990 o          1 T13      -0.580800
     13 OAC         -1.7500     3.2010     0.4420 o          1 T13      -0.580800
     14 CAW         -1.4410     0.5920     0.4240 ca         1 T13      -0.356500
     15 CAT         -1.4630    -0.4760     1.3110 ca         1 T13       0.228900
     16 FAH         -0.9840    -0.3880     2.5370 f          1 T13      -0.088400
     17 CAR         -1.9980    -1.6960     0.9300 ca         1 T13       0.040900
     18 FAF         -2.0160    -2.7070     1.7850 f          1 T13      -0.094400
     19 CAQ         -2.5130    -1.8620    -0.3400 ca         1 T13       0.157900
     20 FAE         -3.0180    -3.0260    -0.7000 f          1 T13      -0.084900
     21 CAS         -2.4940    -0.8110    -1.2400 ca         1 T13       0.040900
     22 FAG         -2.9780    -0.9730    -2.4610 f          1 T13      -0.094400
     23 CAU         -1.9630     0.4000    -0.8500 ca         1 T13       0.228900
     24 FAI         -1.9230     1.3830    -1.7390 f          1 T13      -0.088400
     25 HAA          5.9970    -0.8250     0.7900 h1         1 T13       0.048033
     26 HAAA         4.9380    -1.9240     1.7040 h1         1 T13       0.048033
     27 HAAB         6.0030    -2.5640     0.4400 h1         1 T13       0.048033
     28 HAL          0.8840     0.5030    -2.0410 ha         1 T13       0.153000
     29 HAK          4.1080     0.2620     1.6960 ha         1 T13       0.149000
     30 HAJ          2.4110     2.0040     1.6840 ha         1 T13       0.166000
     31 HNAM         0.2840     2.7830    -1.0590 hn         1 T13       0.452800
@<TRIPOS>BOND
     1     1     2 1   
     2     1    25 1   
     3     1    26 1   
     4     1    27 1   
     5     2     3 1   
     6     3     4 ar  
     7     3     7 ar  
     8     4     5 ar  
     9     4     6 1   
    10     5     9 ar  
    11     5    28 1   
    12     7     8 ar  
    13     7    29 1   
    14     8     9 ar  
    15     8    30 1   
    16     9    10 1   
    17    10    11 1   
    18    10    31 1   
    19    11    12 2   
    20    11    13 2   
    21    11    14 1   
    22    14    15 ar  
    23    14    23 ar  
    24    15    16 1   
    25    15    17 ar  
    26    17    18 1   
    27    17    19 ar  
    28    19    20 1   
    29    19    21 ar  
    30    21    22 1   
    31    21    23 ar  
    32    23    24 1   
@<TRIPOS>SUBSTRUCTURE
     1 T13         1 TEMP              0 ****  ****    0 ROOT
