@<TRIPOS>MOLECULE
T14
   52    56     1     0     0
SMALL
abcg2


@<TRIPOS>ATOM
      1 C02         -4.2120     1.7400    -1.4430 c3         1 T14       0.357300
      2 C03         -4.7950     1.3740    -0.1100 ca         1 T14      -0.181300
      3 C04         -6.0580     1.8380     0.2380 ca         1 T14      -0.064000
      4 C05         -6.6180     1.4990     1.4600 ca         1 T14      -0.112000
      5 C06         -5.9160     0.6910     2.3400 ca         1 T14      -0.080000
      6 C07         -4.6540     0.2300     1.9940 ca         1 T14      -0.106000
      7 C08         -4.0740     0.5650     0.7750 cp         1 T14       0.012000
      8 C09         -2.7140     0.0400     0.4770 cp         1 T14      -0.101000
      9 C10         -2.5810    -1.2790     0.0140 ca         1 T14      -0.006000
     10 C11         -1.3440    -1.8450    -0.2320 ca         1 T14      -0.209300
     11 C12         -1.1900    -3.2380    -0.7410 c3         1 T14       0.364300
     12 C16         -0.2220    -1.0500     0.0020 ca         1 T14      -0.027200
     13 C18          1.7370    -0.1050     0.2610 cc         1 T14       0.391500
     14 C19          3.1750     0.0440     0.2650 ce         1 T14       0.281000
     15 C22          5.3460     0.8580     0.3190 c5         1 T14       0.131000
     16 C23          6.3350     1.0020     1.4660 c6         1 T14      -0.071900
     17 C24          7.7480     0.5730     1.0810 c6         1 T14      -0.069900
     18 C25          8.2310     1.3040    -0.1680 c6         1 T14      -0.075400
     19 C26          7.2570     1.1280    -1.3280 c6         1 T14      -0.069900
     20 C27          5.8480     1.5610    -0.9380 c6         1 T14      -0.071900
     21 C28          3.9140     1.2680     0.6810 c5         1 T14      -0.147700
     22 C30         -0.3410     0.2690     0.4700 ca         1 T14       0.056400
     23 C31         -1.5960     0.8210     0.7100 ca         1 T14       0.016000
     24 F01         -3.1170     2.5060    -1.3240 f          1 T14      -0.112333
     25 F13         -0.4070    -3.9720     0.0660 f          1 T14      -0.112333
     26 F14         -2.3510    -3.8790    -0.8580 f          1 T14      -0.112333
     27 F15         -0.6020    -3.2540    -1.9480 f          1 T14      -0.112333
     28 F32         -3.8500     0.6580    -2.1460 f          1 T14      -0.112333
     29 F33         -5.0710     2.4230    -2.2050 f          1 T14      -0.112333
     30 N17          1.1200    -1.2580    -0.1220 na         1 T14      -0.282600
     31 N20          3.9270    -0.9240    -0.0790 n2         1 T14      -0.263700
     32 N29          0.9000     0.8280     0.6210 nd         1 T14      -0.553100
     33 O21          5.2230    -0.5690     0.0090 os         1 T14      -0.264000
     34 H041        -6.6220     2.4650    -0.4380 ha         1 T14       0.134000
     35 H051        -7.6020     1.8670     1.7180 ha         1 T14       0.123000
     36 H061        -6.3450     0.4190     3.2950 ha         1 T14       0.122000
     37 H071        -4.1020    -0.3980     2.6820 ha         1 T14       0.125000
     38 H101        -3.4810    -1.8570    -0.1490 ha         1 T14       0.137000
     39 H231         6.3410     2.0550     1.7640 hc         1 T14       0.049950
     40 H232         5.9770     0.4390     2.3320 hc         1 T14       0.049950
     41 H241         8.4230     0.7660     1.9170 hc         1 T14       0.048700
     42 H242         7.7750    -0.5070     0.9080 hc         1 T14       0.048700
     43 H251         8.3370     2.3720     0.0560 hc         1 T14       0.039700
     44 H252         9.2240     0.9480    -0.4510 hc         1 T14       0.039700
     45 H261         7.5880     1.7080    -2.1920 hc         1 T14       0.048700
     46 H262         7.2500     0.0810    -1.6470 hc         1 T14       0.048700
     47 H272         5.1440     1.3940    -1.7590 hc         1 T14       0.049950
     48 H271         5.8360     2.6370    -0.7380 hc         1 T14       0.049950
     49 H281         3.5820     2.1590     0.1440 hc         1 T14       0.088200
     50 H282         3.7780     1.4610     1.7490 hc         1 T14       0.088200
     51 H311        -1.6870     1.8330     1.0820 ha         1 T14       0.143000
     52 H171         1.5950    -2.0900    -0.4370 hn         1 T14       0.386000
@<TRIPOS>BOND
     1     1     2 1   
     2     1    24 1   
     3     1    28 1   
     4     1    29 1   
     5     2     3 ar  
     6     2     7 ar  
     7     3     4 ar  
     8     3    34 1   
     9     4     5 ar  
    10     4    35 1   
    11     5     6 ar  
    12     5    36 1   
    13     6     7 ar  
    14     6    37 1   
    15     7     8 1   
    16     8     9 ar  
    17     8    23 ar  
    18     9    10 ar  
    19     9    38 1   
    20    10    11 1   
    21    10    12 ar  
    22    11    25 1   
    23    11    26 1   
    24    11    27 1   
    25    12    22 ar  
    26    12    30 1   
    27    13    14 1   
    28    13    30 1   
    29    13    32 2   
    30    14    21 1   
    31    14    31 2   
    32    15    16 1   
    33    15    20 1   
    34    15    21 1   
    35    15    33 1   
    36    16    17 1   
    37    16    39 1   
    38    16    40 1   
    39    17    18 1   
    40    17    41 1   
    41    17    42 1   
    42    18    19 1   
    43    18    43 1   
    44    18    44 1   
    45    19    20 1   
    46    19    45 1   
    47    19    46 1   
    48    20    47 1   
    49    20    48 1   
    50    21    49 1   
    51    21    50 1   
    52    22    23 ar  
    53    22    32 1   
    54    23    51 1   
    55    30    52 1   
    56    31    33 1   
@<TRIPOS>SUBSTRUCTURE
     1 T14         1 TEMP              0 ****  ****    0 ROOT
