@<TRIPOS>MOLECULE
T14
   52    56     1     0     0
SMALL
No Charge or Current Charge


@<TRIPOS>ATOM
      1 C02         -3.6180     2.2940    -1.2420 c3         1 T14       0.357300
      2 C03         -4.5180     1.6570    -0.1640 ca         1 T14      -0.181300
      3 C04         -5.8180     2.1800     0.0450 ca         1 T14      -0.064000
      4 C05         -6.6810     1.6130     0.9970 ca         1 T14      -0.112000
      5 C06         -6.2640     0.5140     1.7580 ca         1 T14      -0.080000
      6 C07         -4.9760    -0.0090     1.5730 ca         1 T14      -0.106000
      7 C08         -4.0830     0.5510     0.6290 cp         1 T14       0.012000
      8 C09         -2.7250    -0.0480     0.5030 cp         1 T14      -0.101000
      9 C10         -2.5690    -1.3670    -0.0110 ca         1 T14      -0.006000
     10 C11         -1.2900    -1.9660    -0.1390 ca         1 T14      -0.209300
     11 C12         -1.1070    -3.3810    -0.6990 c3         1 T14       0.364300
     12 C16         -0.1920    -1.1910     0.2750 ca         1 T14      -0.027200
     13 C18          1.8070    -0.3690     0.7990 cc         1 T14       0.391500
     14 C19          3.2670    -0.2710     0.9680 ce         1 T14       0.281000
     15 C22          5.3560     0.7150     0.6180 c5         1 T14       0.131000
     16 C23          6.6270     1.2250     1.3610 c6         1 T14      -0.071900
     17 C24          7.9340     0.9480     0.5740 c6         1 T14      -0.069900
     18 C25          7.8740     1.5600    -0.8450 c6         1 T14      -0.075400
     19 C26          6.6310     1.0550    -1.6130 c6         1 T14      -0.069900
     20 C27          5.3290     1.3340    -0.8170 c6         1 T14      -0.071900
     21 C28          4.0380     0.9610     1.4030 c5         1 T14      -0.147700
     22 C30         -0.3130     0.0710     0.7820 ca         1 T14       0.056400
     23 C31         -1.5710     0.6710     0.9130 ca         1 T14       0.016000
     24 F01         -2.6700     3.0860    -0.6940 f          1 T14      -0.112333
     25 F13         -0.5110    -4.1960     0.2010 f          1 T14      -0.112333
     26 F14         -2.2750    -3.9690    -1.0430 f          1 T14      -0.112333
     27 F15         -0.3310    -3.3790    -1.8060 f          1 T14      -0.112333
     28 F32         -2.9790     1.3680    -1.9940 f          1 T14      -0.112333
     29 F33         -4.3080     3.0670    -2.1110 f          1 T14      -0.112333
     30 N17          1.1390    -1.4790     0.2800 na         1 T14      -0.282600
     31 N20          4.0780    -1.2130     0.6100 n2         1 T14      -0.263700
     32 N29          0.9270     0.6070     1.1190 nd         1 T14      -0.553100
     33 O21          5.3960    -0.7270     0.5140 os         1 T14      -0.264000
     34 H041        -6.1750     3.0310    -0.5310 ha         1 T14       0.134000
     35 H051        -7.6770     2.0260     1.1400 ha         1 T14       0.123000
     36 H061        -6.9330     0.0720     2.4940 ha         1 T14       0.122000
     37 H071        -4.6550    -0.8560     2.1750 ha         1 T14       0.125000
     38 H101        -3.4610    -1.9110    -0.3150 ha         1 T14       0.137000
     39 H231         6.5330     2.3050     1.5440 hc         1 T14       0.049950
     40 H232         6.6910     0.7530     2.3510 hc         1 T14       0.049950
     41 H241         8.7930     1.3610     1.1210 hc         1 T14       0.048700
     42 H242         8.1040    -0.1360     0.5030 hc         1 T14       0.048700
     43 H251         7.8460     2.6570    -0.7750 hc         1 T14       0.039700
     44 H252         8.7870     1.3060    -1.4010 hc         1 T14       0.039700
     45 H261         6.5770     1.5420    -2.5960 hc         1 T14       0.048700
     46 H262         6.7260    -0.0230    -1.8070 hc         1 T14       0.048700
     47 H272         4.4690     0.9480    -1.3800 hc         1 T14       0.049950
     48 H271         5.1780     2.4200    -0.7420 hc         1 T14       0.049950
     49 H281         3.5350     1.8970     1.1340 hc         1 T14       0.088200
     50 H282         4.1940     0.9580     2.4870 hc         1 T14       0.088200
     51 H311        -1.6580     1.6710     1.3280 ha         1 T14       0.143000
     52 H171         1.5810    -2.3330    -0.0330 hn         1 T14       0.386000
@<TRIPOS>BOND
     1     1     2 1   
     2     1    24 1   
     3     1    28 1   
     4     1    29 1   
     5     2     3 ar  
     6     2     7 ar  
     7     3     4 ar  
     8     3    34 1   
     9     4     5 ar  
    10     4    35 1   
    11     5     6 ar  
    12     5    36 1   
    13     6     7 ar  
    14     6    37 1   
    15     7     8 1   
    16     8     9 ar  
    17     8    23 ar  
    18     9    10 ar  
    19     9    38 1   
    20    10    11 1   
    21    10    12 ar  
    22    11    25 1   
    23    11    26 1   
    24    11    27 1   
    25    12    22 ar  
    26    12    30 1   
    27    13    14 1   
    28    13    30 1   
    29    13    32 2   
    30    14    21 1   
    31    14    31 2   
    32    15    16 1   
    33    15    20 1   
    34    15    21 1   
    35    15    33 1   
    36    16    17 1   
    37    16    39 1   
    38    16    40 1   
    39    17    18 1   
    40    17    41 1   
    41    17    42 1   
    42    18    19 1   
    43    18    43 1   
    44    18    44 1   
    45    19    20 1   
    46    19    45 1   
    47    19    46 1   
    48    20    47 1   
    49    20    48 1   
    50    21    49 1   
    51    21    50 1   
    52    22    23 ar  
    53    22    32 1   
    54    23    51 1   
    55    30    52 1   
    56    31    33 1   
@<TRIPOS>SUBSTRUCTURE
     1 T14         1 TEMP              0 ****  ****    0 ROOT
