@<TRIPOS>MOLECULE
T15
   72    74     1     0     0
SMALL
bcc


@<TRIPOS>ATOM
      1 C1           6.6630     3.3530    -0.7620 ca         1 T15      -0.126000
      2 C2           5.5640     2.5120    -0.6750 ca         1 T15      -0.103000
      3 C3           4.3280     3.0130    -0.2740 ca         1 T15      -0.087300
      4 C4           4.2090     4.3610     0.0500 ca         1 T15      -0.103000
      5 C5           5.3090     5.2020    -0.0380 ca         1 T15      -0.126000
      6 C6           6.5380     4.6990    -0.4420 ca         1 T15      -0.114000
      7 C7           3.1420     2.1080    -0.1620 c3         1 T15      -0.157300
      8 S8           3.0780     1.4080     1.4960 s6         1 T15       1.244900
      9 N9           1.7930     0.3780     1.4850 nu         1 T15      -0.733900
     10 C10          0.3440    -1.3770     0.8390 c          1 T15       0.690700
     11 N11          0.1640    -2.6080     0.2580 n          1 T15      -0.299000
     12 C12          1.1340    -3.2550    -0.4670 cc         1 T15       0.058400
     13 C13          2.3720    -2.7000    -0.5340 cd         1 T15      -0.201000
     14 C14          2.6620    -1.4870     0.1220 cd         1 T15      -0.099000
     15 O15         -0.5950    -0.7870     1.3870 o          1 T15      -0.692500
     16 C16          0.8060    -4.5400    -1.1510 c3         1 T15      -0.065900
     17 C17         -1.1710    -3.1550     0.4020 c3         1 T15      -0.008000
     18 C18         -2.1480    -2.4430    -0.5230 c          1 T15       0.658100
     19 C19          1.6790    -0.8290     0.7950 cc         1 T15       0.039800
     20 N20         -3.4210    -2.4800    -0.1070 ns         1 T15      -0.571900
     21 C22         -5.5660    -1.3590     0.0960 cc         1 T15      -0.255900
     22 N23         -5.3350    -0.3750     1.0310 na         1 T15      -0.166900
     23 C24         -6.5050    -0.1480     1.6570 cc         1 T15       0.424400
     24 N25         -7.4610    -0.9160     1.2080 nd         1 T15      -0.678000
     25 C26         -6.8900    -1.6850     0.2300 cd         1 T15       0.341600
     26 C28         -4.1030     0.3310     1.2570 c3         1 T15      -0.052700
     27 C29         -3.7600     1.2090     0.0530 c          1 T15       0.653100
     28 N30         -2.4650     1.2140    -0.2670 ns         1 T15      -0.565900
     29 C31         -1.8430     1.9520    -1.3740 c3         1 T15       0.142400
     30 C32         -2.0190     3.4580    -1.1840 c3         1 T15      -0.106100
     31 C33         -0.3560     1.6090    -1.3210 c3         1 T15      -0.106100
     32 C34         -2.4150     1.5000    -2.7180 c3         1 T15      -0.106100
     33 O35         -4.6410     1.8390    -0.5120 o          1 T15      -0.594100
     34 O36         -1.7710    -1.9220    -1.5580 o          1 T15      -0.596100
     35 O37          4.2930     0.6400     1.7060 o          1 T15      -0.592800
     36 O38          2.7190     2.4570     2.4320 o          1 T15      -0.592800
     37 C8          -7.6810    -2.6960    -0.5270 c3         1 T15      -0.112400
     38 C9          -4.5250    -1.8780    -0.8310 c3         1 T15       0.178300
     39 H1           7.6190     2.9570    -1.0800 ha         1 T15       0.135500
     40 H2           5.6660     1.4650    -0.9300 ha         1 T15       0.137000
     41 H4           3.2500     4.7590     0.3610 ha         1 T15       0.137000
     42 H5           5.2050     6.2510     0.2080 ha         1 T15       0.135500
     43 H6           7.3960     5.3560    -0.5110 ha         1 T15       0.133000
     44 H7           2.2020     2.6400    -0.3040 h1         1 T15       0.100200
     45 H7A          3.1810     1.2770    -0.8700 h1         1 T15       0.100200
     46 HN9          0.9340     0.7420     1.8820 hn         1 T15       0.480800
     47 H13          3.1460    -3.1990    -1.0970 ha         1 T15       0.156000
     48 H14          3.6730    -1.1070     0.0770 ha         1 T15       0.162000
     49 H16         -0.0430    -4.4360    -1.8270 hc         1 T15       0.061700
     50 H16A         1.6630    -4.8600    -1.7390 hc         1 T15       0.061700
     51 H16B         0.5770    -5.3380    -0.4430 hc         1 T15       0.061700
     52 H17         -1.1640    -4.2140     0.1540 h1         1 T15       0.083200
     53 H17A        -1.4800    -3.0820     1.4440 h1         1 T15       0.083200
     54 HN20        -3.6430    -2.9810     0.7410 hn         1 T15       0.320500
     55 H24         -6.5960     0.5860     2.4450 h5         1 T15       0.057100
     56 H28         -4.2380     0.9820     2.1220 h1         1 T15       0.080700
     57 H28A        -3.3060    -0.3700     1.5040 h1         1 T15       0.080700
     58 HN30        -1.8600     0.5830     0.2430 hn         1 T15       0.332500
     59 H32         -1.6030     3.7780    -0.2270 hc         1 T15       0.045256
     60 H32A        -1.4920     3.9950    -1.9750 hc         1 T15       0.045256
     61 H32B        -3.0660     3.7530    -1.2210 hc         1 T15       0.045256
     62 H33         -0.1870     0.5410    -1.4710 hc         1 T15       0.045256
     63 H33A         0.1820     2.1470    -2.1020 hc         1 T15       0.045256
     64 H33B         0.0710     1.8950    -0.3570 hc         1 T15       0.045256
     65 H34         -3.4690     1.7530    -2.8170 hc         1 T15       0.045256
     66 H34A        -1.8760     1.9880    -3.5320 hc         1 T15       0.045256
     67 H34B        -2.3070     0.4210    -2.8350 hc         1 T15       0.045256
     68 H8          -8.2410    -3.3400     0.1510 hc         1 T15       0.044367
     69 H8A         -8.4040    -2.2210    -1.1940 hc         1 T15       0.044367
     70 H8B         -7.0420    -3.3330    -1.1360 hc         1 T15       0.044367
     71 H9          -4.1190    -1.0880    -1.4650 h1         1 T15       0.072200
     72 H9A         -4.9910    -2.6020    -1.5030 h1         1 T15       0.072200
@<TRIPOS>BOND
     1     1     2 ar  
     2     1     6 ar  
     3     1    39 1   
     4     2     3 ar  
     5     2    40 1   
     6     3     4 ar  
     7     3     7 1   
     8     4     5 ar  
     9     4    41 1   
    10     5     6 ar  
    11     5    42 1   
    12     6    43 1   
    13     7     8 1   
    14     7    44 1   
    15     7    45 1   
    16     8     9 1   
    17     8    35 2   
    18     8    36 2   
    19     9    19 1   
    20     9    46 1   
    21    10    11 1   
    22    10    15 2   
    23    10    19 1   
    24    11    12 1   
    25    11    17 1   
    26    12    13 2   
    27    12    16 1   
    28    13    14 1   
    29    13    47 1   
    30    14    19 2   
    31    14    48 1   
    32    16    49 1   
    33    16    50 1   
    34    16    51 1   
    35    17    18 1   
    36    17    52 1   
    37    17    53 1   
    38    18    20 1   
    39    18    34 2   
    40    20    38 1   
    41    20    54 1   
    42    21    22 1   
    43    21    25 2   
    44    21    38 1   
    45    22    23 1   
    46    22    26 1   
    47    23    24 2   
    48    23    55 1   
    49    24    25 1   
    50    25    37 1   
    51    26    27 1   
    52    26    56 1   
    53    26    57 1   
    54    27    28 1   
    55    27    33 2   
    56    28    29 1   
    57    28    58 1   
    58    29    30 1   
    59    29    31 1   
    60    29    32 1   
    61    30    59 1   
    62    30    60 1   
    63    30    61 1   
    64    31    62 1   
    65    31    63 1   
    66    31    64 1   
    67    32    65 1   
    68    32    66 1   
    69    32    67 1   
    70    37    68 1   
    71    37    69 1   
    72    37    70 1   
    73    38    71 1   
    74    38    72 1   
@<TRIPOS>SUBSTRUCTURE
     1 T15         1 TEMP              0 ****  ****    0 ROOT
