@<TRIPOS>MOLECULE
T15
   72    74     1     0     0
SMALL
No Charge or Current Charge


@<TRIPOS>ATOM
      1 C1           6.3470     3.3930    -1.4470 ca         1 T15      -0.108000
      2 C2           5.5880     2.3400    -0.9070 ca         1 T15      -0.085000
      3 C3           4.2000     2.4890    -0.7220 ca         1 T15      -0.087300
      4 C4           3.5780     3.6990    -1.0830 ca         1 T15      -0.085000
      5 C5           4.3370     4.7520    -1.6220 ca         1 T15      -0.108000
      6 C6           5.7220     4.6000    -1.8050 ca         1 T15      -0.096000
      7 C7           3.3770     1.3460    -0.1390 c3         1 T15      -0.268100
      8 S8           3.1620     1.4230     1.6540 s6         1 T15       1.214100
      9 N9           2.0850     0.2170     2.0600 nu         1 T15      -0.789100
     10 C10          0.4460    -1.3410     1.0800 c          1 T15       0.548200
     11 N11          0.2440    -2.5710     0.4060 n          1 T15      -0.232000
     12 C12          1.3190    -3.3390    -0.0760 cc         1 T15       0.058400
     13 C13          2.6220    -2.9660     0.1920 cd         1 T15      -0.251000
     14 C14          2.9110    -1.7720     0.9340 cd         1 T15      -0.149000
     15 O15         -0.4960    -0.6320     1.4390 o          1 T15      -0.617000
     16 C16          1.0490    -4.5880    -0.8860 c3         1 T15      -0.065900
     17 C17         -1.1750    -3.0290     0.2820 c3         1 T15      -0.008000
     18 C18         -2.0250    -2.2530    -0.7350 c          1 T15       0.591100
     19 C19          1.8750    -0.9620     1.3420 cc         1 T15       0.039800
     20 N20         -3.3790    -2.4500    -0.5940 ns         1 T15      -0.504900
     21 C22         -5.5300    -1.3500    -0.3310 cc         1 T15      -0.241300
     22 N23         -5.4250    -0.5870     0.8210 na         1 T15      -0.145500
     23 C24         -6.6850    -0.5190     1.3820 cc         1 T15       0.424400
     24 N25         -7.5630    -1.2020     0.6610 nd         1 T15      -0.678000
     25 C26         -6.8520    -1.7150    -0.4000 cd         1 T15       0.276300
     26 C28         -4.2100     0.0770     1.3460 c3         1 T15      -0.023400
     27 C29         -3.7890     1.2970     0.5180 c          1 T15       0.586100
     28 N30         -2.4430     1.3520     0.2000 ns         1 T15      -0.498900
     29 C31         -1.7780     2.3440    -0.6550 c3         1 T15       0.142400
     30 C32         -1.9020     3.7650    -0.0480 c3         1 T15      -0.106100
     31 C33         -0.2850     1.9600    -0.7210 c3         1 T15      -0.106100
     32 C34         -2.3690     2.3080    -2.0870 c3         1 T15      -0.106100
     33 O35         -4.5950     2.1470     0.1650 o          1 T15      -0.594100
     34 O36         -1.5580    -1.5160    -1.5920 o          1 T15      -0.596100
     35 O37          4.4240     1.0720     2.3100 o          1 T15      -0.522000
     36 O38          2.4640     2.6620     2.0020 o          1 T15      -0.522000
     37 C8          -7.5170    -2.5550    -1.4560 c3         1 T15      -0.112400
     38 C9          -4.4050    -1.6740    -1.2780 c3         1 T15       0.178300
     39 H1           7.4190     3.2740    -1.5880 ha         1 T15       0.117500
     40 H2           6.0800     1.4090    -0.6330 ha         1 T15       0.119000
     41 H4           2.5070     3.8270    -0.9430 ha         1 T15       0.119000
     42 H5           3.8520     5.6860    -1.8990 ha         1 T15       0.117500
     43 H6           6.3090     5.4150    -2.2220 ha         1 T15       0.115000
     44 H7           2.3730     1.3400    -0.5690 h1         1 T15       0.100200
     45 H7A          3.8560     0.3860    -0.3520 h1         1 T15       0.100200
     46 HN9          1.2390     0.7300     2.2890 hn         1 T15       0.536000
     47 H13          3.4450    -3.5870    -0.1570 ha         1 T15       0.206000
     48 H14          3.9420    -1.5100     1.1630 ha         1 T15       0.212000
     49 H16          0.3400    -4.3920    -1.6980 hc         1 T15       0.061700
     50 H16A         1.9660    -4.9730    -1.3490 hc         1 T15       0.061700
     51 H16B         0.6440    -5.3880    -0.2540 hc         1 T15       0.061700
     52 H17         -1.2430    -4.0920     0.0290 h1         1 T15       0.083200
     53 H17A        -1.6600    -2.9190     1.2600 h1         1 T15       0.083200
     54 HN20        -3.6790    -3.0950     0.1270 hn         1 T15       0.320500
     55 H24         -6.8870     0.0300     2.2940 h5         1 T15       0.057100
     56 H28         -4.3880     0.4180     2.3730 h1         1 T15       0.080700
     57 H28A        -3.3850    -0.6430     1.3730 h1         1 T15       0.080700
     58 HN30        -1.8630     0.6020     0.5710 hn         1 T15       0.332500
     59 H32         -1.5340     3.7800     0.9860 hc         1 T15       0.045256
     60 H32A        -1.3120     4.4860    -0.6270 hc         1 T15       0.045256
     61 H32B        -2.9390     4.1170    -0.0450 hc         1 T15       0.045256
     62 H33         -0.1550     0.9500    -1.1260 hc         1 T15       0.045256
     63 H33A         0.2700     2.6550    -1.3630 hc         1 T15       0.045256
     64 H33B         0.1650     1.9890     0.2780 hc         1 T15       0.045256
     65 H34         -3.4160     2.6300    -2.1020 hc         1 T15       0.045256
     66 H34A        -1.8100     2.9760    -2.7540 hc         1 T15       0.045256
     67 H34B        -2.3180     1.2950    -2.5030 hc         1 T15       0.045256
     68 H8          -8.5790    -2.7120    -1.2360 hc         1 T15       0.044367
     69 H8A         -7.4460    -2.0720    -2.4370 hc         1 T15       0.044367
     70 H8B         -7.0400    -3.5390    -1.5270 hc         1 T15       0.044367
     71 H9          -3.9780    -0.7400    -1.6660 h1         1 T15       0.072200
     72 H9A         -4.7810    -2.2560    -2.1300 h1         1 T15       0.072200
@<TRIPOS>BOND
     1     1     2 ar  
     2     1     6 ar  
     3     1    39 1   
     4     2     3 ar  
     5     2    40 1   
     6     3     4 ar  
     7     3     7 1   
     8     4     5 ar  
     9     4    41 1   
    10     5     6 ar  
    11     5    42 1   
    12     6    43 1   
    13     7     8 1   
    14     7    44 1   
    15     7    45 1   
    16     8     9 1   
    17     8    35 2   
    18     8    36 2   
    19     9    19 1   
    20     9    46 1   
    21    10    11 1   
    22    10    15 2   
    23    10    19 1   
    24    11    12 1   
    25    11    17 1   
    26    12    13 2   
    27    12    16 1   
    28    13    14 1   
    29    13    47 1   
    30    14    19 2   
    31    14    48 1   
    32    16    49 1   
    33    16    50 1   
    34    16    51 1   
    35    17    18 1   
    36    17    52 1   
    37    17    53 1   
    38    18    20 1   
    39    18    34 2   
    40    20    38 1   
    41    20    54 1   
    42    21    22 1   
    43    21    25 2   
    44    21    38 1   
    45    22    23 1   
    46    22    26 1   
    47    23    24 2   
    48    23    55 1   
    49    24    25 1   
    50    25    37 1   
    51    26    27 1   
    52    26    56 1   
    53    26    57 1   
    54    27    28 1   
    55    27    33 2   
    56    28    29 1   
    57    28    58 1   
    58    29    30 1   
    59    29    31 1   
    60    29    32 1   
    61    30    59 1   
    62    30    60 1   
    63    30    61 1   
    64    31    62 1   
    65    31    63 1   
    66    31    64 1   
    67    32    65 1   
    68    32    66 1   
    69    32    67 1   
    70    37    68 1   
    71    37    69 1   
    72    37    70 1   
    73    38    71 1   
    74    38    72 1   
@<TRIPOS>SUBSTRUCTURE
     1 T15         1 TEMP              0 ****  ****    0 ROOT
