@<TRIPOS>MOLECULE
T17
  128   131     1     0     0
SMALL
No Charge or Current Charge


@<TRIPOS>ATOM
      1 C1           5.1050    -3.9080     0.3030 c3         1 T17      -0.082100
      2 C2           3.5530    -3.9200     0.2180 c5         1 T17       0.165000
      3 C3           2.8640    -2.9880    -0.8710 c5         1 T17       0.099700
      4 C4           2.9240    -3.6620     1.6460 c3         1 T17       0.158300
      5 O5           3.1910    -5.2610    -0.1900 os         1 T17      -0.423100
      6 N6           1.7510    -3.9060    -1.2090 n          1 T17      -0.442800
      7 C7           3.7160    -2.5640    -2.1270 c3         1 T17      -0.171700
      8 C8           3.0850    -4.8140     2.6780 c3         1 T17      -0.079400
      9 O9           3.5560    -2.5050     2.2550 os         1 T17      -0.468100
     10 C10          2.0060    -5.2230    -0.8430 c          1 T17       0.693100
     11 C12          3.8480    -3.6600    -3.2210 c3         1 T17      -0.079100
     12 C13          3.2210    -1.2240    -2.7400 c          1 T17       0.572100
     13 C14          2.3170    -4.5770     3.9970 c3         1 T17      -0.094100
     14 C15          2.8980    -1.3030     2.3170 c          1 T17       0.596100
     15 O16          1.3010    -6.1930    -1.0700 o          1 T17      -0.528000
     16 O18          2.0410    -1.0760    -3.0240 o          1 T17      -0.518100
     17 C19          4.2320    -0.1050    -3.1420 c3         1 T17      -0.155700
     18 O20          1.7260    -1.1550     2.0120 o          1 T17      -0.446000
     19 C21          3.6750    -0.3200     3.1920 c3         1 T17      -0.226700
     20 C23          5.5830    -0.5730    -3.7540 c3         1 T17      -0.085100
     21 C24          4.2640     1.1310    -2.1660 c3         1 T17      -0.095400
     22 C25          3.4110    -0.5710     4.7010 c3         1 T17      -0.081100
     23 C26          3.3450     1.1200     2.7750 c          1 T17       0.566100
     24 C11          4.9090     1.1170    -0.7130 c3         1 T17       0.192000
     25 O29          2.3000     1.6580     3.1140 o          1 T17      -0.470100
     26 C30          4.3410     1.8190     1.8270 c3         1 T17      -0.175700
     27 O32          6.0270     2.0490    -0.6760 os         1 T17      -0.444000
     28 C33          5.4410    -0.2660    -0.2520 c3         1 T17      -0.132100
     29 C34          3.8510     1.6550     0.3400 c3         1 T17       0.202300
     30 C35          4.7280     3.2560     2.2810 c3         1 T17      -0.075100
     31 C38          7.1820     1.7930    -1.5050 c3         1 T17       0.145900
     32 O39          3.3030     2.9090    -0.1430 os         1 T17      -0.442000
     33 C42          1.9980     3.2940     0.3300 c6         1 T17       0.346300
     34 C44          1.5640     4.6520    -0.3010 c6         1 T17       0.159300
     35 O45          1.0480     2.2760    -0.0180 os         1 T17      -0.492000
     36 O48          2.5430     5.6860    -0.0290 oh         1 T17      -0.695000
     37 C49          0.1280     5.0140     0.2340 c6         1 T17       0.193500
     38 C50         -0.2450     2.5020     0.5630 c6         1 T17       0.187300
     39 N53         -0.4180     6.3120    -0.3020 n3         1 T17      -0.710600
     40 C54         -0.8410     3.8130    -0.0050 c6         1 T17      -0.150400
     41 C55         -1.1080     1.2640     0.2420 c3         1 T17      -0.088100
     42 C57         -0.5760     6.3810    -1.7760 c3         1 T17       0.159100
     43 C58         -1.6160     6.8040     0.4180 c3         1 T17       0.159100
     44 C28          0.4600    -3.5420    -1.8310 c3         1 T17       0.127000
     45 C17         -0.4440    -2.7060    -0.9070 c3         1 T17      -0.121400
     46 C83         -1.8640    -2.5360    -1.4970 c3         1 T17       0.093600
     47 N80         -2.7990    -1.7800    -0.6460 na         1 T17       0.120800
     48 N81         -3.0580    -2.1620     0.6370 nc         1 T17      -0.210800
     49 N82         -3.9400    -1.3200     1.1060 nd         1 T17      -0.350000
     50 C78         -4.2620    -0.4090     0.1230 cd         1 T17       0.223300
     51 C79         -3.5480    -0.6880    -1.0050 cc         1 T17      -0.227000
     52 C93         -9.1810     0.8690     0.3350 c          1 T17       0.582100
     53 C92         -7.7380     1.3760     0.4480 c3         1 T17      -0.160400
     54 O93         -9.7180     0.2070     1.2140 o          1 T17      -0.657100
     55 C91         -6.7160     0.2340     0.2380 c3         1 T17      -0.064400
     56 C90         -5.2490     0.7070     0.3430 c3         1 T17      -0.094700
     57 O          -10.9700     1.8820    -3.3030 o          1 T17      -0.732000
     58 N           -9.8430     1.2430    -0.8110 ns         1 T17      -0.462900
     59 CA         -11.2400     0.8790    -1.1460 c3         1 T17      -0.056000
     60 C          -11.7610     1.6300    -2.4040 c          1 T17       0.712000
     61 OXT        -12.9320     1.9820    -2.4200 o          1 T17      -0.732000
     62 H1           5.5650    -4.1870    -0.6510 hc         1 T17       0.053367
     63 H2           5.4980    -2.9310     0.5970 hc         1 T17       0.053367
     64 H3           5.4620    -4.6300     1.0450 hc         1 T17       0.053367
     65 H4           2.4870    -2.0730    -0.3950 h1         1 T17       0.085700
     66 H5           1.8430    -3.5120     1.5160 h1         1 T17       0.086700
     67 H6           4.7420    -2.3770    -1.8140 hc         1 T17       0.071700
     68 H7           2.7210    -5.7520     2.2430 hc         1 T17       0.059700
     69 H8           4.1460    -4.9640     2.9090 hc         1 T17       0.059700
     70 H9           2.8810    -3.8650    -3.6970 hc         1 T17       0.045700
     71 H10          4.5460    -3.3500    -4.0070 hc         1 T17       0.045700
     72 H11          4.2250    -4.5970    -2.7940 hc         1 T17       0.045700
     73 H12          2.4270    -5.4420     4.6620 hc         1 T17       0.040367
     74 H13          2.6990    -3.6950     4.5230 hc         1 T17       0.040367
     75 H14          1.2480    -4.4280     3.8020 hc         1 T17       0.040367
     76 H15          3.7260     0.3420    -4.0080 hc         1 T17       0.071700
     77 H16          4.7330    -0.5410     3.0140 hc         1 T17       0.079700
     78 H17          5.3970    -1.2010    -4.6340 hc         1 T17       0.037367
     79 H18          6.1670     0.2890    -4.0970 hc         1 T17       0.037367
     80 H19          6.2050    -1.1530    -3.0690 hc         1 T17       0.037367
     81 H20          4.6840     1.9820    -2.7170 hc         1 T17       0.077200
     82 H21          3.2080     1.4070    -2.0620 hc         1 T17       0.077200
     83 H22          3.7370    -1.5770     4.9910 hc         1 T17       0.054367
     84 H23          3.9630     0.1510     5.3150 hc         1 T17       0.054367
     85 H24          2.3430    -0.4760     4.9360 hc         1 T17       0.054367
     86 H25          5.2720     1.2590     1.9110 hc         1 T17       0.065700
     87 H26          4.6040    -0.9180     0.0070 hc         1 T17       0.043700
     88 H27          6.0520    -0.7530    -1.0090 hc         1 T17       0.043700
     89 H28          6.0880    -0.1910     0.6280 hc         1 T17       0.043700
     90 H29          3.0580     0.8940     0.3370 h1         1 T17       0.065700
     91 H30          5.2160     3.2240     3.2630 hc         1 T17       0.048033
     92 H31          5.4320     3.7100     1.5730 hc         1 T17       0.048033
     93 H32          3.8570     3.9140     2.3700 hc         1 T17       0.048033
     94 H33          7.6570     0.8360    -1.2550 h1         1 T17       0.026367
     95 H34          6.9220     1.7910    -2.5690 h1         1 T17       0.026367
     96 H35          7.9310     2.5800    -1.3520 h1         1 T17       0.026367
     97 H36          2.0210     3.4100     1.4220 h2         1 T17       0.053700
     98 H37          1.4980     4.4910    -1.3870 h1         1 T17       0.045700
     99 H38          3.4160     5.2870    -0.2540 ho         1 T17       0.508000
    100 H39          0.2350     5.1190     1.3250 h1         1 T17       0.072700
    101 H40         -0.1410     2.5800     1.6560 h1         1 T17       0.046700
    102 H42         -1.8120     4.0010     0.4710 hc         1 T17       0.056700
    103 H43         -1.0340     3.6840    -1.0780 hc         1 T17       0.056700
    104 H44         -0.6640     0.3560     0.6650 hc         1 T17       0.045367
    105 H45         -2.1110     1.3730     0.6700 hc         1 T17       0.045367
    106 H46         -1.2130     1.1200    -0.8390 hc         1 T17       0.045367
    107 H47         -1.3550     5.6930    -2.1260 h1         1 T17       0.029367
    108 H48         -0.8630     7.3960    -2.0820 h1         1 T17       0.029367
    109 H49          0.3620     6.1370    -2.2910 h1         1 T17       0.029367
    110 H50         -1.4470     6.7990     1.5030 h1         1 T17       0.029367
    111 H51         -1.8490     7.8340     0.1180 h1         1 T17       0.029367
    112 H52         -2.4940     6.1810     0.2010 h1         1 T17       0.029367
    113 H53          0.6380    -3.0070    -2.7690 h1         1 T17       0.063200
    114 H54         -0.0810    -4.4570    -2.1050 h1         1 T17       0.063200
    115 H55         -0.5120    -3.2040     0.0680 hc         1 T17       0.077200
    116 H56          0.0090    -1.7220    -0.7410 hc         1 T17       0.077200
    117 H57         -1.7910    -2.0250    -2.4660 h1         1 T17       0.059700
    118 H58         -2.3020    -3.5260    -1.6770 h1         1 T17       0.059700
    119 H62         -3.5140    -0.2180    -1.9780 h4         1 T17       0.158000
    120 H64         -7.5510     2.1500    -0.3060 hc         1 T17       0.045700
    121 H65         -7.5880     1.7940     1.4510 hc         1 T17       0.045700
    122 H66         -6.8940    -0.5530     0.9830 hc         1 T17       0.061200
    123 H67         -6.8780    -0.2200    -0.7480 hc         1 T17       0.061200
    124 H68         -5.0840     1.1570     1.3290 hc         1 T17       0.044700
    125 H69         -5.0740     1.5010    -0.3930 hc         1 T17       0.044700
    126 H70         -9.3190     1.7920    -1.4860 hn         1 T17       0.335500
    127 H71        -11.2940    -0.2000    -1.3380 h1         1 T17       0.035200
    128 H72        -11.8880     1.1210    -0.2940 h1         1 T17       0.035200
@<TRIPOS>BOND
     1     1     2 1   
     2     1    62 1   
     3     1    63 1   
     4     1    64 1   
     5     2     3 1   
     6     2     4 1   
     7     2     5 1   
     8     3     6 1   
     9     3     7 1   
    10     3    65 1   
    11     4     8 1   
    12     4     9 1   
    13     4    66 1   
    14     5    10 1   
    15     6    10 1   
    16     6    44 1   
    17     7    11 1   
    18     7    12 1   
    19     7    67 1   
    20     8    13 1   
    21     8    68 1   
    22     8    69 1   
    23     9    14 1   
    24    10    15 2   
    25    11    70 1   
    26    11    71 1   
    27    11    72 1   
    28    12    16 2   
    29    12    17 1   
    30    13    73 1   
    31    13    74 1   
    32    13    75 1   
    33    14    18 2   
    34    14    19 1   
    35    17    20 1   
    36    17    21 1   
    37    17    76 1   
    38    19    22 1   
    39    19    23 1   
    40    19    77 1   
    41    20    78 1   
    42    20    79 1   
    43    20    80 1   
    44    21    24 1   
    45    21    81 1   
    46    21    82 1   
    47    22    83 1   
    48    22    84 1   
    49    22    85 1   
    50    23    25 2   
    51    23    26 1   
    52    24    27 1   
    53    24    28 1   
    54    24    29 1   
    55    26    29 1   
    56    26    30 1   
    57    26    86 1   
    58    27    31 1   
    59    28    87 1   
    60    28    88 1   
    61    28    89 1   
    62    29    32 1   
    63    29    90 1   
    64    30    91 1   
    65    30    92 1   
    66    30    93 1   
    67    31    94 1   
    68    31    95 1   
    69    31    96 1   
    70    32    33 1   
    71    33    34 1   
    72    33    35 1   
    73    33    97 1   
    74    34    36 1   
    75    34    37 1   
    76    34    98 1   
    77    35    38 1   
    78    36    99 1   
    79    37    39 1   
    80    37    40 1   
    81    37   100 1   
    82    38    40 1   
    83    38    41 1   
    84    38   101 1   
    85    39    42 1   
    86    39    43 1   
    87    40   102 1   
    88    40   103 1   
    89    41   104 1   
    90    41   105 1   
    91    41   106 1   
    92    42   107 1   
    93    42   108 1   
    94    42   109 1   
    95    43   110 1   
    96    43   111 1   
    97    43   112 1   
    98    44    45 1   
    99    44   113 1   
   100    44   114 1   
   101    45    46 1   
   102    45   115 1   
   103    45   116 1   
   104    46    47 1   
   105    46   117 1   
   106    46   118 1   
   107    47    48 1   
   108    47    51 1   
   109    48    49 2   
   110    49    50 1   
   111    50    51 2   
   112    50    56 1   
   113    51   119 1   
   114    52    53 1   
   115    52    54 2   
   116    52    58 1   
   117    53    55 1   
   118    53   120 1   
   119    53   121 1   
   120    55    56 1   
   121    55   122 1   
   122    55   123 1   
   123    56   124 1   
   124    56   125 1   
   125    57    60 1   
   126    58    59 1   
   127    58   126 1   
   128    59    60 1   
   129    59   127 1   
   130    59   128 1   
   131    60    61 1   
@<TRIPOS>SUBSTRUCTURE
     1 T17         1 TEMP              0 ****  ****    0 ROOT
