@<TRIPOS>MOLECULE
T17
  128   131     1     0     0
SMALL
abcg2


@<TRIPOS>ATOM
      1 C1           5.0080    -4.0260     0.4480 c3         1 T17      -0.082100
      2 C2           3.5100    -4.0450     0.2280 c5         1 T17       0.165000
      3 C3           2.9440    -3.0800    -0.8550 c5         1 T17       0.099700
      4 C4           2.7090    -3.8470     1.5400 c3         1 T17       0.158300
      5 O5           3.1570    -5.3410    -0.2780 os         1 T17      -0.423100
      6 N6           1.9230    -3.9330    -1.4280 n          1 T17      -0.442800
      7 C7           3.9550    -2.5140    -1.8830 c3         1 T17      -0.171700
      8 C8           2.8640    -4.9570     2.5690 c3         1 T17      -0.079400
      9 O9           3.1650    -2.6190     2.1360 os         1 T17      -0.468100
     10 C10          2.1160    -5.2320    -1.1230 c          1 T17       0.693100
     11 C12          4.1220    -3.4060    -3.1180 c3         1 T17      -0.079100
     12 C13          3.5570    -1.1050    -2.3020 c          1 T17       0.572100
     13 C14          2.0020    -4.7340     3.8050 c3         1 T17      -0.094100
     14 C15          2.3330    -1.5920     2.3160 c          1 T17       0.596100
     15 O16          1.5020    -6.1970    -1.5100 o          1 T17      -0.528000
     16 O18          2.3890    -0.7840    -2.3140 o          1 T17      -0.518100
     17 C19          4.6010    -0.0680    -2.7110 c3         1 T17      -0.155700
     18 O20          1.2070    -1.5440     1.9020 o          1 T17      -0.446000
     19 C21          2.9870    -0.5090     3.1520 c3         1 T17      -0.226700
     20 C23          6.0340    -0.5430    -2.9390 c3         1 T17      -0.085100
     21 C24          4.4420     1.2140    -1.8560 c3         1 T17      -0.095400
     22 C25          2.5710    -0.7090     4.6170 c3         1 T17      -0.081100
     23 C26          2.5640     0.8780     2.6700 c          1 T17       0.566100
     24 C11          4.6920     1.2130    -0.3120 c3         1 T17       0.192000
     25 O29          1.4360     1.2670     2.8500 o          1 T17      -0.470100
     26 C30          3.6110     1.7390     1.9840 c3         1 T17      -0.175700
     27 O32          5.6700     2.1780     0.0300 os         1 T17      -0.444000
     28 C33          5.0590    -0.1700     0.2300 c3         1 T17      -0.132100
     29 C34          3.4120     1.6770     0.4270 c3         1 T17       0.202300
     30 C35          3.6030     3.1470     2.5720 c3         1 T17      -0.075100
     31 C38          6.9980     1.8770    -0.3190 c3         1 T17       0.145900
     32 O39          3.0180     2.9290    -0.0870 os         1 T17      -0.442000
     33 C42          1.6530     3.1350    -0.2480 c6         1 T17       0.346300
     34 C44          1.4160     4.6330    -0.4570 c6         1 T17       0.159300
     35 O45          1.2390     2.4150    -1.3700 os         1 T17      -0.492000
     36 O48          1.8080     5.3880     0.6590 oh         1 T17      -0.695000
     37 C49         -0.0760     4.8560    -0.7010 c6         1 T17       0.193500
     38 C50         -0.1540     2.5070    -1.6140 c6         1 T17       0.187300
     39 N53         -0.4000     6.2670    -0.8300 n3         1 T17      -0.710600
     40 C54         -0.5360     3.9600    -1.8590 c6         1 T17      -0.150400
     41 C55         -0.4710     1.6090    -2.7900 c3         1 T17      -0.088100
     42 C57          0.2010     6.9470    -1.9550 c3         1 T17       0.159100
     43 C58         -1.8210     6.5230    -0.7560 c3         1 T17       0.159100
     44 C28          0.7490    -3.4700    -2.1320 c3         1 T17       0.127000
     45 C17         -0.2280    -2.7700    -1.1970 c3         1 T17      -0.121400
     46 C83         -1.5150    -2.4120    -1.9220 c3         1 T17       0.093600
     47 N80         -2.4810    -1.8070    -1.0230 na         1 T17       0.120800
     48 N81         -2.8790    -2.4480     0.0570 nc         1 T17      -0.210800
     49 N82         -3.7280    -1.7000     0.6760 nd         1 T17      -0.350000
     50 C78         -3.8950    -0.5470    -0.0100 cd         1 T17       0.223300
     51 C79         -3.0870    -0.6100    -1.1170 cc         1 T17      -0.227000
     52 C93         -8.6080     0.6230     1.3040 c          1 T17       0.582100
     53 C92         -7.2060     1.1320     1.0430 c3         1 T17      -0.160400
     54 O93         -8.8130    -0.3980     1.9560 o          1 T17      -0.657100
     55 C91         -6.2650     0.0280     0.5790 c3         1 T17      -0.064400
     56 C90         -4.8290     0.5280     0.4290 c3         1 T17      -0.094700
     57 O          -11.2860     3.0720    -0.3060 o          1 T17      -0.732000
     58 N           -9.5950     1.3640     0.7950 ns         1 T17      -0.462900
     59 CA         -10.9950     1.0760     0.9680 c3         1 T17      -0.056000
     60 C          -11.8720     2.1370     0.2740 c          1 T17       0.712000
     61 OXT        -13.0980     1.9510     0.3650 o          1 T17      -0.732000
     62 H1           5.5420    -4.2890    -0.4640 hc         1 T17       0.053367
     63 H2           5.3530    -3.0480     0.7760 hc         1 T17       0.053367
     64 H3           5.2950    -4.7470     1.2120 hc         1 T17       0.053367
     65 H4           2.4620    -2.2390    -0.3540 h1         1 T17       0.085700
     66 H5           1.6480    -3.7490     1.2850 h1         1 T17       0.086700
     67 H6           4.9350    -2.4460    -1.4090 hc         1 T17       0.071700
     68 H7           2.5700    -5.8970     2.1010 hc         1 T17       0.059700
     69 H8           3.9090    -5.0650     2.8640 hc         1 T17       0.059700
     70 H9           3.2040    -3.4770    -3.6990 hc         1 T17       0.045700
     71 H10          4.9000    -3.0220    -3.7740 hc         1 T17       0.045700
     72 H11          4.4200    -4.4140    -2.8260 hc         1 T17       0.045700
     73 H12          2.0670    -5.5960     4.4680 hc         1 T17       0.040367
     74 H13          2.3200    -3.8640     4.3790 hc         1 T17       0.040367
     75 H14          0.9510    -4.5990     3.5420 hc         1 T17       0.040367
     76 H15          4.2520     0.2570    -3.6980 hc         1 T17       0.071700
     77 H16          4.0700    -0.6120     3.0840 hc         1 T17       0.079700
     78 H17          6.0870    -1.2760    -3.7430 hc         1 T17       0.037367
     79 H18          6.6410     0.3050    -3.2570 hc         1 T17       0.037367
     80 H19          6.5270    -0.9760    -2.0710 hc         1 T17       0.037367
     81 H20          5.0990     1.9670    -2.2990 hc         1 T17       0.077200
     82 H21          3.4350     1.5740    -2.0480 hc         1 T17       0.077200
     83 H22          2.8990    -1.6830     4.9790 hc         1 T17       0.054367
     84 H23          3.0370     0.0480     5.2460 hc         1 T17       0.054367
     85 H24          1.4910    -0.6390     4.7350 hc         1 T17       0.054367
     86 H25          4.5870     1.3190     2.2250 hc         1 T17       0.065700
     87 H26          4.1850    -0.8190     0.2440 hc         1 T17       0.043700
     88 H27          5.8220    -0.6660    -0.3600 hc         1 T17       0.043700
     89 H28          5.4420    -0.1260     1.2480 hc         1 T17       0.043700
     90 H29          2.6460     0.9270     0.1840 h1         1 T17       0.065700
     91 H30          3.8640     3.0980     3.6300 hc         1 T17       0.048033
     92 H31          4.3520     3.7680     2.0820 hc         1 T17       0.048033
     93 H32          2.6360     3.6370     2.4960 hc         1 T17       0.048033
     94 H33          7.4100     1.0460     0.2610 h1         1 T17       0.026367
     95 H34          7.1150     1.6400    -1.3820 h1         1 T17       0.026367
     96 H35          7.5960     2.7630    -0.1060 h1         1 T17       0.026367
     97 H36          1.0930     2.7940     0.6420 h2         1 T17       0.053700
     98 H37          1.9840     4.9230    -1.3540 h1         1 T17       0.045700
     99 H38          2.7500     5.2490     0.8010 ho         1 T17       0.508000
    100 H39         -0.5960     4.5120     0.2050 h1         1 T17       0.072700
    101 H40         -0.7010     2.1440    -0.7270 h1         1 T17       0.046700
    102 H42         -1.6190     4.0300    -1.9790 hc         1 T17       0.056700
    103 H43         -0.0880     4.2910    -2.8020 hc         1 T17       0.056700
    104 H44         -0.1760     0.5790    -2.5850 hc         1 T17       0.045367
    105 H45         -1.5400     1.6310    -3.0010 hc         1 T17       0.045367
    106 H46          0.0520     1.9400    -3.6880 hc         1 T17       0.045367
    107 H47         -0.1590     6.6060    -2.9370 h1         1 T17       0.029367
    108 H48         -0.0190     8.0140    -1.8850 h1         1 T17       0.029367
    109 H49          1.2860     6.8460    -1.9450 h1         1 T17       0.029367
    110 H50         -2.2480     6.0270     0.1180 h1         1 T17       0.029367
    111 H51         -1.9960     7.5950    -0.6450 h1         1 T17       0.029367
    112 H52         -2.3880     6.1910    -1.6380 h1         1 T17       0.029367
    113 H53          1.0430    -2.8110    -2.9470 h1         1 T17       0.063200
    114 H54          0.2790    -4.3440    -2.5840 h1         1 T17       0.063200
    115 H55         -0.4590    -3.4310    -0.3590 hc         1 T17       0.077200
    116 H56          0.2220    -1.8660    -0.7830 hc         1 T17       0.077200
    117 H57         -1.3330    -1.6950    -2.7220 h1         1 T17       0.059700
    118 H58         -1.9680    -3.2960    -2.3740 h1         1 T17       0.059700
    119 H62         -2.9180     0.0730    -1.9310 h4         1 T17       0.158000
    120 H64         -7.2160     1.9490     0.3180 hc         1 T17       0.045700
    121 H65         -6.8330     1.5560     1.9820 hc         1 T17       0.045700
    122 H66         -6.2860    -0.7970     1.2930 hc         1 T17       0.061200
    123 H67         -6.6100    -0.3750    -0.3770 hc         1 T17       0.061200
    124 H68         -4.4920     0.9400     1.3850 hc         1 T17       0.044700
    125 H69         -4.7900     1.3490    -0.2900 hc         1 T17       0.044700
    126 H70         -9.3950     2.1960     0.2590 hn         1 T17       0.335500
    127 H71        -11.2430     0.0910     0.5610 h1         1 T17       0.035200
    128 H72        -11.2570     1.0430     2.0310 h1         1 T17       0.035200
@<TRIPOS>BOND
     1     1     2 1   
     2     1    62 1   
     3     1    63 1   
     4     1    64 1   
     5     2     3 1   
     6     2     4 1   
     7     2     5 1   
     8     3     6 1   
     9     3     7 1   
    10     3    65 1   
    11     4     8 1   
    12     4     9 1   
    13     4    66 1   
    14     5    10 1   
    15     6    10 1   
    16     6    44 1   
    17     7    11 1   
    18     7    12 1   
    19     7    67 1   
    20     8    13 1   
    21     8    68 1   
    22     8    69 1   
    23     9    14 1   
    24    10    15 2   
    25    11    70 1   
    26    11    71 1   
    27    11    72 1   
    28    12    16 2   
    29    12    17 1   
    30    13    73 1   
    31    13    74 1   
    32    13    75 1   
    33    14    18 2   
    34    14    19 1   
    35    17    20 1   
    36    17    21 1   
    37    17    76 1   
    38    19    22 1   
    39    19    23 1   
    40    19    77 1   
    41    20    78 1   
    42    20    79 1   
    43    20    80 1   
    44    21    24 1   
    45    21    81 1   
    46    21    82 1   
    47    22    83 1   
    48    22    84 1   
    49    22    85 1   
    50    23    25 2   
    51    23    26 1   
    52    24    27 1   
    53    24    28 1   
    54    24    29 1   
    55    26    29 1   
    56    26    30 1   
    57    26    86 1   
    58    27    31 1   
    59    28    87 1   
    60    28    88 1   
    61    28    89 1   
    62    29    32 1   
    63    29    90 1   
    64    30    91 1   
    65    30    92 1   
    66    30    93 1   
    67    31    94 1   
    68    31    95 1   
    69    31    96 1   
    70    32    33 1   
    71    33    34 1   
    72    33    35 1   
    73    33    97 1   
    74    34    36 1   
    75    34    37 1   
    76    34    98 1   
    77    35    38 1   
    78    36    99 1   
    79    37    39 1   
    80    37    40 1   
    81    37   100 1   
    82    38    40 1   
    83    38    41 1   
    84    38   101 1   
    85    39    42 1   
    86    39    43 1   
    87    40   102 1   
    88    40   103 1   
    89    41   104 1   
    90    41   105 1   
    91    41   106 1   
    92    42   107 1   
    93    42   108 1   
    94    42   109 1   
    95    43   110 1   
    96    43   111 1   
    97    43   112 1   
    98    44    45 1   
    99    44   113 1   
   100    44   114 1   
   101    45    46 1   
   102    45   115 1   
   103    45   116 1   
   104    46    47 1   
   105    46   117 1   
   106    46   118 1   
   107    47    48 1   
   108    47    51 1   
   109    48    49 2   
   110    49    50 1   
   111    50    51 2   
   112    50    56 1   
   113    51   119 1   
   114    52    53 1   
   115    52    54 2   
   116    52    58 1   
   117    53    55 1   
   118    53   120 1   
   119    53   121 1   
   120    55    56 1   
   121    55   122 1   
   122    55   123 1   
   123    56   124 1   
   124    56   125 1   
   125    57    60 1   
   126    58    59 1   
   127    58   126 1   
   128    59    60 1   
   129    59   127 1   
   130    59   128 1   
   131    60    61 1   
@<TRIPOS>SUBSTRUCTURE
     1 T17         1 TEMP              0 ****  ****    0 ROOT
