@<TRIPOS>MOLECULE
T18
   57    61     1     0     0
SMALL
No Charge or Current Charge


@<TRIPOS>ATOM
      1 C1          -4.2420     0.9890    -0.9230 ca         1 T18       0.003000
      2 C2          -5.0550     0.4250     0.0860 ca         1 T18       0.191000
      3 C3          -2.8870     0.6200    -1.0390 ca         1 T18      -0.167000
      4 C4          -4.4760    -0.5030     0.9740 ca         1 T18      -0.011000
      5 C5          -2.3270    -0.3050    -0.1480 ca         1 T18       0.388000
      6 C6          -3.1190    -0.8640     0.8490 ca         1 T18      -0.298500
      7 S7          -2.4010    -2.0740     1.9360 sy         1 T18       1.058600
      8 C8          -0.6630    -2.0150     1.6330 ce         1 T18      -0.494100
      9 C9          -0.1660    -1.3210     0.5980 cf         1 T18       0.353000
     10 N10         -0.9950    -0.6520    -0.2520 nu         1 T18      -0.806000
     11 N11         -6.4100     0.7570     0.2490 nu         1 T18      -0.875100
     12 S12         -7.4920     1.4210    -0.8250 s6         1 T18       1.190100
     13 C13         -7.4780     0.3230    -2.2250 c3         1 T18      -0.383100
     14 O14         -8.7910     1.3250    -0.1590 o          1 T18      -0.527500
     15 O15         -6.9480     2.7220    -1.2160 o          1 T18      -0.527500
     16 O16         -2.6350    -1.6470     3.3210 o          1 T18      -0.532500
     17 O17         -2.8740    -3.3940     1.5010 o          1 T18      -0.532500
     18 C18          5.1590    -2.2290    -2.5060 ca         1 T18       0.147000
     19 C19          5.9510    -1.3970    -1.7130 ca         1 T18      -0.085000
     20 C20          5.3900    -0.7670    -0.5920 ca         1 T18      -0.133000
     21 C21          3.8080    -2.4280    -2.1910 ca         1 T18      -0.109000
     22 C22          3.2290    -1.8070    -1.0510 ca         1 T18      -0.169800
     23 C23          4.0380    -0.9890    -0.2280 ca         1 T18       0.119600
     24 N24          3.4320    -0.2830     0.8720 n          1 T18      -0.281000
     25 C25          2.0450    -0.3340     1.1340 c          1 T18       0.587200
     26 C26          1.2420    -1.2270     0.2720 cd         1 T18      -0.299200
     27 C27          1.8060    -1.9750    -0.7330 cc         1 T18       0.279900
     28 O29          1.0910    -2.8520    -1.4630 oh         1 T18      -0.498100
     29 C30          4.2930     0.4660     1.8320 c3         1 T18       0.132300
     30 O31          1.5350     0.3170     2.0380 o          1 T18      -0.532000
     31 C32          4.7300     1.8480     1.3450 ca         1 T18      -0.126300
     32 C33          3.8180     2.7110     0.7010 ca         1 T18      -0.074000
     33 C34          5.5600     4.3900     0.4570 ca         1 T18       0.179000
     34 C35          6.4730     3.5430     1.1020 ca         1 T18      -0.147500
     35 C36          4.2340     3.9780     0.2570 ca         1 T18      -0.147500
     36 C37          6.0590     2.2750     1.5480 ca         1 T18      -0.074000
     37 F38          5.9580     5.6080     0.0300 f          1 T18      -0.174000
     38 H1          -4.6420     1.7170    -1.6200 ha         1 T18       0.147000
     39 H3          -2.2760     1.0650    -1.8180 ha         1 T18       0.124000
     40 H4          -5.0850    -0.9500     1.7570 ha         1 T18       0.133000
     41 HN10        -0.5070    -0.2340    -1.0410 hn         1 T18       0.513000
     42 HN11        -6.9640     0.2490     0.9280 hn         1 T18       0.492000
     43 H13         -7.7640    -0.6710    -1.8680 h1         1 T18       0.105367
     44 H13A        -8.2030     0.7080    -2.9490 h1         1 T18       0.105367
     45 H13B        -6.4670     0.3210    -2.6420 h1         1 T18       0.105367
     46 H19          6.9930    -1.2290    -1.9740 ha         1 T18       0.143000
     47 H20          6.0310    -0.1080    -0.0170 ha         1 T18       0.139000
     48 H21          3.2280    -3.0530    -2.8630 ha         1 T18       0.130000
     49 HO29         1.7340    -3.3940    -1.9580 ho         1 T18       0.488000
     50 H30          3.7810     0.5850     2.7950 h1         1 T18       0.082200
     51 H30A         5.1770    -0.1450     2.0530 h1         1 T18       0.082200
     52 H33          2.7860     2.4040     0.5430 ha         1 T18       0.117000
     53 H35          7.4980     3.8700     1.2570 ha         1 T18       0.135500
     54 H36          3.5310     4.6410    -0.2410 ha         1 T18       0.135500
     55 H37          6.7740     1.6250     2.0490 ha         1 T18       0.117000
     56 H8          -0.0730    -2.5740     2.3520 h4         1 T18       0.244000
     57 F28          5.6900    -2.8250    -3.5960 f          1 T18      -0.166000
@<TRIPOS>BOND
     1     1     2 ar  
     2     1     3 ar  
     3     1    38 1   
     4     2     4 ar  
     5     2    11 1   
     6     3     5 ar  
     7     3    39 1   
     8     4     6 ar  
     9     4    40 1   
    10     5     6 ar  
    11     5    10 1   
    12     6     7 1   
    13     7     8 1   
    14     7    16 2   
    15     7    17 2   
    16     8     9 2   
    17     8    56 1   
    18     9    10 1   
    19     9    26 1   
    20    10    41 1   
    21    11    12 1   
    22    11    42 1   
    23    12    13 1   
    24    12    14 2   
    25    12    15 2   
    26    13    43 1   
    27    13    44 1   
    28    13    45 1   
    29    18    19 ar  
    30    18    21 ar  
    31    18    57 1   
    32    19    20 ar  
    33    19    46 1   
    34    20    23 ar  
    35    20    47 1   
    36    21    22 ar  
    37    21    48 1   
    38    22    23 ar  
    39    22    27 1   
    40    23    24 1   
    41    24    25 1   
    42    24    29 1   
    43    25    26 1   
    44    25    30 2   
    45    26    27 2   
    46    27    28 1   
    47    28    49 1   
    48    29    31 1   
    49    29    50 1   
    50    29    51 1   
    51    31    32 ar  
    52    31    36 ar  
    53    32    35 ar  
    54    32    52 1   
    55    33    34 ar  
    56    33    35 ar  
    57    33    37 1   
    58    34    36 ar  
    59    34    53 1   
    60    35    54 1   
    61    36    55 1   
@<TRIPOS>SUBSTRUCTURE
     1 T18         1 TEMP              0 ****  ****    0 ROOT
