@<TRIPOS>MOLECULE
T18
   57    61     1     0     0
SMALL
bcc


@<TRIPOS>ATOM
      1 C1          -4.0080     1.7430    -0.4420 ca         1 T18      -0.015000
      2 C2          -4.8640     0.8770     0.2490 ca         1 T18       0.052600
      3 C3          -2.7070     1.3850    -0.6990 ca         1 T18      -0.185000
      4 C4          -4.3900    -0.3500     0.6700 ca         1 T18      -0.029000
      5 C5          -2.2080     0.1500    -0.2670 ca         1 T18       0.249600
      6 C6          -3.0690    -0.7090     0.4150 ca         1 T18      -0.298500
      7 S7          -2.5660    -2.3410     0.8320 sy         1 T18       1.200200
      8 C8          -0.8490    -2.1750     0.8090 ce         1 T18      -0.444100
      9 C9          -0.2350    -1.1940     0.1200 cf         1 T18       0.353000
     10 N10         -0.8860    -0.1590    -0.4690 nu         1 T18      -0.612400
     11 N11         -6.1900     1.2820     0.5300 nu         1 T18      -0.681500
     12 S12         -7.3230     1.2760    -0.6930 s6         1 T18       1.220900
     13 C13         -7.6000    -0.4310    -1.0990 c3         1 T18      -0.272300
     14 O14         -8.5340     1.8250    -0.1100 o          1 T18      -0.598300
     15 O15         -6.7120     1.9240    -1.8390 o          1 T18      -0.598300
     16 O16         -3.0290    -2.6720     2.1790 o          1 T18      -0.603300
     17 O17         -3.0080    -3.2410    -0.2330 o          1 T18      -0.603300
     18 C18          5.4010    -2.5060    -2.0080 ca         1 T18       0.111900
     19 C19          6.0950    -1.6550    -1.1620 ca         1 T18      -0.103000
     20 C20          5.4020    -0.9130    -0.2330 ca         1 T18      -0.151000
     21 C21          4.0380    -2.6200    -1.9460 ca         1 T18      -0.127000
     22 C22          3.3240    -1.8700    -1.0040 ca         1 T18      -0.169800
     23 C23          4.0070    -1.0080    -0.1270 ca         1 T18       0.119600
     24 N24          3.3140    -0.2720     0.8160 n          1 T18      -0.348000
     25 C25          1.9350    -0.2800     0.9030 c          1 T18       0.729700
     26 C26          1.2370    -1.1680     0.0050 cd         1 T18      -0.299200
     27 C27          1.8860    -1.9410    -0.9040 cc         1 T18       0.279900
     28 O29          1.1620    -2.7270    -1.6860 oh         1 T18      -0.459100
     29 C30          4.0450     0.5510     1.7670 c3         1 T18       0.132300
     30 O31          1.3420     0.4250     1.7090 o          1 T18      -0.607500
     31 C32          4.5450     1.8540     1.1950 ca         1 T18      -0.126300
     32 C33          3.9140     2.4870     0.1300 ca         1 T18      -0.092000
     33 C34          5.4630     4.2920     0.2650 ca         1 T18       0.143900
     34 C35          6.1170     3.6900     1.3230 ca         1 T18      -0.165500
     35 C36          4.3700     3.7100    -0.3440 ca         1 T18      -0.165500
     36 C37          5.6500     2.4670     1.7790 ca         1 T18      -0.092000
     37 F38          5.9060     5.4770    -0.1850 f          1 T18      -0.138900
     38 H1          -4.3620     2.7150    -0.7530 ha         1 T18       0.165000
     39 H3          -2.0500     2.0720    -1.2180 ha         1 T18       0.142000
     40 H4          -5.0420    -1.0300     1.2060 ha         1 T18       0.151000
     41 HN10        -0.3270     0.5210    -0.9620 hn         1 T18       0.457800
     42 HN11        -6.5710     0.9320     1.4040 hn         1 T18       0.436800
     43 H13         -7.9830    -0.9510    -0.2240 h1         1 T18       0.105367
     44 H13A        -8.3310    -0.4680    -1.9060 h1         1 T18       0.105367
     45 H13B        -6.6660    -0.8810    -1.4310 h1         1 T18       0.105367
     46 H19          7.1710    -1.5700    -1.2320 ha         1 T18       0.161000
     47 H20          5.9670    -0.2500     0.4030 ha         1 T18       0.157000
     48 H21          3.5540    -3.2980    -2.6380 ha         1 T18       0.148000
     49 HO29         1.6900    -3.2370    -2.3090 ho         1 T18       0.449000
     50 H30          3.3770     0.7500     2.6020 h1         1 T18       0.082200
     51 H30A         4.8720    -0.0310     2.1750 h1         1 T18       0.082200
     52 H33          3.0580     2.0350    -0.3540 ha         1 T18       0.135000
     53 H35          6.9760     4.1630     1.7800 ha         1 T18       0.153500
     54 H36          3.8770     4.2010    -1.1730 ha         1 T18       0.153500
     55 H37          6.1610     1.9840     2.6040 ha         1 T18       0.135000
     56 H8          -0.2930    -2.9600     1.3020 h4         1 T18       0.194000
     57 F28          6.0820    -3.2260    -2.9080 f          1 T18      -0.130900
@<TRIPOS>BOND
     1     1     2 ar  
     2     1     3 ar  
     3     1    38 1   
     4     2     4 ar  
     5     2    11 1   
     6     3     5 ar  
     7     3    39 1   
     8     4     6 ar  
     9     4    40 1   
    10     5     6 ar  
    11     5    10 1   
    12     6     7 1   
    13     7     8 1   
    14     7    16 2   
    15     7    17 2   
    16     8     9 2   
    17     8    56 1   
    18     9    10 1   
    19     9    26 1   
    20    10    41 1   
    21    11    12 1   
    22    11    42 1   
    23    12    13 1   
    24    12    14 2   
    25    12    15 2   
    26    13    43 1   
    27    13    44 1   
    28    13    45 1   
    29    18    19 ar  
    30    18    21 ar  
    31    18    57 1   
    32    19    20 ar  
    33    19    46 1   
    34    20    23 ar  
    35    20    47 1   
    36    21    22 ar  
    37    21    48 1   
    38    22    23 ar  
    39    22    27 1   
    40    23    24 1   
    41    24    25 1   
    42    24    29 1   
    43    25    26 1   
    44    25    30 2   
    45    26    27 2   
    46    27    28 1   
    47    28    49 1   
    48    29    31 1   
    49    29    50 1   
    50    29    51 1   
    51    31    32 ar  
    52    31    36 ar  
    53    32    35 ar  
    54    32    52 1   
    55    33    34 ar  
    56    33    35 ar  
    57    33    37 1   
    58    34    36 ar  
    59    34    53 1   
    60    35    54 1   
    61    36    55 1   
@<TRIPOS>SUBSTRUCTURE
     1 T18         1 TEMP              0 ****  ****    0 ROOT
