@<TRIPOS>MOLECULE
T1B
   30    32     1     0     0
SMALL
bcc


@<TRIPOS>ATOM
      1 C12          7.9200     7.2480   -10.0970 cc         1 T1B      -0.237500
      2 C13          6.5480     7.3680   -10.1150 cd         1 T1B       0.317200
      3 C01         10.7130     3.1880    -3.7920 c3         1 T1B      -0.088100
      4 C02         10.3680     2.5030    -5.1140 c3         1 T1B      -0.029100
      5 C03         10.3390     3.4740    -6.2630 ca         1 T1B      -0.097300
      6 C04         11.5510     3.8650    -6.8700 ca         1 T1B      -0.101000
      7 C05         11.6050     4.7850    -7.8990 ca         1 T1B      -0.134000
      8 C06         10.3920     5.3210    -8.3180 ca         1 T1B      -0.080200
      9 C08          8.7100     6.3790    -9.2500 cc         1 T1B       0.487400
     10 C10          9.1710     4.9520    -7.7370 ca         1 T1B       0.073400
     11 C11          9.1440     4.0190    -6.6990 ca         1 T1B      -0.062000
     12 N07         10.0620     6.2350    -9.2830 na         1 T1B      -0.261300
     13 N09          8.1440     5.6280    -8.3390 nd         1 T1B      -0.554100
     14 N14          6.2160     8.2830   -11.0370 nd         1 T1B      -0.357000
     15 N15          7.2910     8.7350   -11.5860 nc         1 T1B      -0.192800
     16 N16          8.3290     8.1280   -11.0370 na         1 T1B       0.106400
     17 H1           5.8190     6.8460    -9.5170 h4         1 T1B       0.069100
     18 H2          10.7300     2.4700    -2.9710 hc         1 T1B       0.035700
     19 H3          11.6930     3.6650    -3.8390 hc         1 T1B       0.035700
     20 H4           9.9790     3.9580    -3.5500 hc         1 T1B       0.035700
     21 H5           9.3990     2.0090    -5.0250 hc         1 T1B       0.046700
     22 H6          11.1000     1.7170    -5.3150 hc         1 T1B       0.046700
     23 H7          12.4740     3.4230    -6.5170 ha         1 T1B       0.132000
     24 H8          12.5450     5.0680    -8.3540 ha         1 T1B       0.136000
     25 H9           8.2030     3.7290    -6.2450 ha         1 T1B       0.149000
     26 H10          9.5700     9.2510   -12.2300 h1         1 T1B       0.065033
     27 H11         10.2650     8.8320   -10.6600 h1         1 T1B       0.065033
     28 H12         10.1420     7.6030   -11.9480 h1         1 T1B       0.065033
     29 H13         10.7190     6.6910    -9.8960 hn         1 T1B       0.304700
     30 C17          9.6620     8.4650   -11.4880 c3         1 T1B       0.026600
@<TRIPOS>BOND
     1     1     2 2   
     2     1     9 1   
     3     1    16 1   
     4     2    14 1   
     5     2    17 1   
     6     3     4 1   
     7     3    18 1   
     8     3    19 1   
     9     3    20 1   
    10     4     5 1   
    11     4    21 1   
    12     4    22 1   
    13     5     6 ar  
    14     5    11 ar  
    15     6     7 ar  
    16     6    23 1   
    17     7     8 ar  
    18     7    24 1   
    19     8    10 ar  
    20     8    12 1   
    21     9    12 1   
    22     9    13 2   
    23    10    11 ar  
    24    10    13 1   
    25    11    25 1   
    26    12    29 1   
    27    14    15 2   
    28    15    16 1   
    29    16    30 1   
    30    26    30 1   
    31    27    30 1   
    32    28    30 1   
@<TRIPOS>SUBSTRUCTURE
     1 T1B         1 TEMP              0 ****  ****    0 ROOT
