@<TRIPOS>MOLECULE
T1B
   30    32     1     0     0
SMALL
No Charge or Current Charge


@<TRIPOS>ATOM
      1 C12          7.8820     7.2900   -10.0820 cc         1 T1B      -0.222900
      2 C13          6.5310     7.4630   -10.0730 cd         1 T1B       0.251900
      3 C01         10.6310     3.1320    -3.7490 c3         1 T1B      -0.088100
      4 C02         10.4750     2.4640    -5.1280 c3         1 T1B      -0.029100
      5 C03         10.4210     3.4860    -6.2570 ca         1 T1B      -0.097300
      6 C04         11.6170     3.9060    -6.8940 ca         1 T1B      -0.083000
      7 C05         11.5780     4.8550    -7.9370 ca         1 T1B      -0.116000
      8 C06         10.3250     5.3540    -8.3060 ca         1 T1B      -0.080200
      9 C08          8.6020     6.4060    -9.2130 cc         1 T1B       0.487400
     10 C10          9.1640     4.9660    -7.7060 ca         1 T1B       0.073400
     11 C11          9.1780     4.0240    -6.6670 ca         1 T1B      -0.044000
     12 N07          9.9880     6.2630    -9.2600 na         1 T1B      -0.311600
     13 N09          8.0670     5.6160    -8.2610 nd         1 T1B      -0.554100
     14 N14          6.2070     8.3880   -11.0470 nd         1 T1B      -0.357000
     15 N15          7.2980     8.7900   -11.6520 nc         1 T1B      -0.192800
     16 N16          8.3420     8.1270   -11.0740 na         1 T1B       0.127800
     17 H1           5.7840     6.9930    -9.4440 h4         1 T1B       0.069100
     18 H2          10.6670     2.3730    -2.9580 hc         1 T1B       0.035700
     19 H3          11.5560     3.7190    -3.7060 hc         1 T1B       0.035700
     20 H4           9.7860     3.8010    -3.5470 hc         1 T1B       0.035700
     21 H5           9.5650     1.8520    -5.1270 hc         1 T1B       0.046700
     22 H6          11.3100     1.7700    -5.2840 hc         1 T1B       0.046700
     23 H7          12.5750     3.4970    -6.5790 ha         1 T1B       0.114000
     24 H8          12.4880     5.1840    -8.4330 ha         1 T1B       0.118000
     25 H9           8.2490     3.7200    -6.1900 ha         1 T1B       0.131000
     26 H10          9.7100     9.1040   -12.3550 h1         1 T1B       0.065033
     27 H11         10.3240     8.7560   -10.7170 h1         1 T1B       0.065033
     28 H12         10.1460     7.4310   -11.9180 h1         1 T1B       0.065033
     29 H13         10.6180     6.7440    -9.8840 hn         1 T1B       0.355000
     30 C17          9.7160     8.3670   -11.5420 c3         1 T1B       0.055900
@<TRIPOS>BOND
     1     1     2 2   
     2     1     9 1   
     3     1    16 1   
     4     2    14 1   
     5     2    17 1   
     6     3     4 1   
     7     3    18 1   
     8     3    19 1   
     9     3    20 1   
    10     4     5 1   
    11     4    21 1   
    12     4    22 1   
    13     5     6 ar  
    14     5    11 ar  
    15     6     7 ar  
    16     6    23 1   
    17     7     8 ar  
    18     7    24 1   
    19     8    10 ar  
    20     8    12 1   
    21     9    12 1   
    22     9    13 2   
    23    10    11 ar  
    24    10    13 1   
    25    11    25 1   
    26    12    29 1   
    27    14    15 2   
    28    15    16 1   
    29    16    30 1   
    30    26    30 1   
    31    27    30 1   
    32    28    30 1   
@<TRIPOS>SUBSTRUCTURE
     1 T1B         1 TEMP              0 ****  ****    0 ROOT
