@<TRIPOS>MOLECULE
T1D
   36    38     1     0     0
SMALL
abcg2


@<TRIPOS>ATOM
      1 O           -4.4770    -1.3240     1.9030 o          1 T1D      -0.489000
      2 C           -3.5800    -1.0430     1.1510 c          1 T1D       0.580000
      3 N           -3.5400    -1.3650    -0.1760 ns         1 T1D      -0.601300
      4 S           -2.2070    -0.8370    -1.0290 s6         1 T1D       1.325900
      5 O1          -1.4960    -1.9530    -1.6130 o          1 T1D      -0.532000
      6 O2          -2.5660     0.2380    -1.9300 o          1 T1D      -0.532000
      7 N1          -1.4730    -0.3190     0.3480 nh         1 T1D      -0.796300
      8 C1          -2.3350    -0.2750     1.5160 c5         1 T1D       0.144800
      9 C2          -0.2820     0.4350     0.2200 ca         1 T1D       0.193000
     10 C3           0.9300    -0.2330     0.1700 ca         1 T1D      -0.039000
     11 C4           2.1350     0.4580     0.0570 cp         1 T1D      -0.064000
     12 C5           2.0750     1.8480     0.0060 ca         1 T1D      -0.045000
     13 C6           0.8710     2.5340     0.0590 ca         1 T1D      -0.199000
     14 C7          -0.3290     1.8360     0.1560 ca         1 T1D       0.157100
     15 O3          -1.5400     2.3960     0.2040 os         1 T1D      -0.336100
     16 C8          -1.6430     3.8090     0.1620 c3         1 T1D       0.149900
     17 C9           3.4220    -0.2620     0.0010 cp         1 T1D      -0.034000
     18 C10          4.5610     0.2610     0.6160 ca         1 T1D      -0.099500
     19 C11          5.7710    -0.4150     0.5640 ca         1 T1D      -0.109500
     20 C12          5.8650    -1.6310    -0.1010 ca         1 T1D      -0.105000
     21 C13          4.7390    -2.1630    -0.7150 ca         1 T1D      -0.109500
     22 C14          3.5300    -1.4840    -0.6660 ca         1 T1D      -0.099500
     23 H           -4.2870    -1.8630    -0.6490 hn         1 T1D       0.357500
     24 H1          -2.6170     0.7430     1.7960 h1         1 T1D       0.091700
     25 H11A        -1.8460    -0.7490     2.3680 h1         1 T1D       0.091700
     26 H3           0.9190    -1.3120     0.2510 ha         1 T1D       0.139000
     27 H5           2.9860     2.4240    -0.0950 ha         1 T1D       0.120000
     28 H6           0.8860     3.6140     0.0060 ha         1 T1D       0.125000
     29 H8C1        -1.2440     4.2150    -0.7700 h1         1 T1D       0.047367
     30 H8C2        -2.7030     4.0390     0.2220 h1         1 T1D       0.047367
     31 H8C3        -1.1300     4.2770     1.0050 h1         1 T1D       0.047367
     32 H10          4.5000     1.1970     1.1580 ha         1 T1D       0.116000
     33 H11          6.6400     0.0060     1.0520 ha         1 T1D       0.114500
     34 H12          6.8090    -2.1590    -0.1430 ha         1 T1D       0.114000
     35 H13          4.8020    -3.1050    -1.2440 ha         1 T1D       0.114500
     36 H14          2.6680    -1.9020    -1.1720 ha         1 T1D       0.116000
@<TRIPOS>BOND
     1     1     2 2   
     2     2     3 1   
     3     2     8 1   
     4     3     4 1   
     5     3    23 1   
     6     4     5 2   
     7     4     6 2   
     8     4     7 1   
     9     7     8 1   
    10     7     9 1   
    11     8    24 1   
    12     8    25 1   
    13     9    10 ar  
    14     9    14 ar  
    15    10    11 ar  
    16    10    26 1   
    17    11    12 ar  
    18    11    17 1   
    19    12    13 ar  
    20    12    27 1   
    21    13    14 ar  
    22    13    28 1   
    23    14    15 1   
    24    15    16 1   
    25    16    29 1   
    26    16    30 1   
    27    16    31 1   
    28    17    18 ar  
    29    17    22 ar  
    30    18    19 ar  
    31    18    32 1   
    32    19    20 ar  
    33    19    33 1   
    34    20    21 ar  
    35    20    34 1   
    36    21    22 ar  
    37    21    35 1   
    38    22    36 1   
@<TRIPOS>SUBSTRUCTURE
     1 T1D         1 TEMP              0 ****  ****    0 ROOT
