@<TRIPOS>MOLECULE
T1D
   36    38     1     0     0
SMALL
No Charge or Current Charge


@<TRIPOS>ATOM
      1 O           -4.8110    -1.2470     1.6020 o          1 T1D      -0.489000
      2 C           -3.7760    -1.0130     0.9960 c          1 T1D       0.580000
      3 N           -3.5060    -1.5200    -0.2280 ns         1 T1D      -0.601300
      4 S           -2.0550    -1.2370    -0.9360 s6         1 T1D       1.325900
      5 O1          -1.2840    -2.4810    -0.9850 o          1 T1D      -0.532000
      6 O2          -2.2360    -0.3780    -2.1060 o          1 T1D      -0.532000
      7 N1          -1.5070    -0.2890     0.3730 nh         1 T1D      -0.796300
      8 C1          -2.5550    -0.1330     1.4440 c5         1 T1D       0.144800
      9 C2          -0.3210     0.4790     0.2680 ca         1 T1D       0.193000
     10 C3           0.9110    -0.1970     0.1690 ca         1 T1D      -0.039000
     11 C4           2.1430     0.4930     0.0660 cp         1 T1D      -0.064000
     12 C5           2.1080     1.9070     0.0650 ca         1 T1D      -0.045000
     13 C6           0.8930     2.6040     0.1600 ca         1 T1D      -0.199000
     14 C7          -0.3300     1.9020     0.2620 ca         1 T1D       0.157100
     15 O3          -1.5400     2.5760     0.3320 os         1 T1D      -0.336100
     16 C8          -1.6330     4.0120     0.3150 c3         1 T1D       0.149900
     17 C9           3.4390    -0.2500    -0.0360 cp         1 T1D      -0.034000
     18 C10          4.6190     0.2480     0.5730 ca         1 T1D      -0.099500
     19 C11          5.8360    -0.4500     0.4780 ca         1 T1D      -0.109500
     20 C12          5.8990    -1.6610    -0.2290 ca         1 T1D      -0.105000
     21 C13          4.7440    -2.1730    -0.8410 ca         1 T1D      -0.109500
     22 C14          3.5270    -1.4760    -0.7450 ca         1 T1D      -0.099500
     23 H           -4.0990    -2.1850    -0.6900 hn         1 T1D       0.357500
     24 H1          -2.9110     0.8990     1.5480 h1         1 T1D       0.091700
     25 H11A        -2.2080    -0.4970     2.4200 h1         1 T1D       0.091700
     26 H3           0.9110    -1.2820     0.2000 ha         1 T1D       0.139000
     27 H5           3.0330     2.4730    -0.0270 ha         1 T1D       0.120000
     28 H6           0.9230     3.6890     0.1470 ha         1 T1D       0.125000
     29 H8C1        -1.2160     4.4200    -0.6140 h1         1 T1D       0.047367
     30 H8C2        -2.6830     4.3250     0.3810 h1         1 T1D       0.047367
     31 H8C3        -1.0960     4.4480     1.1670 h1         1 T1D       0.047367
     32 H10          4.5900     1.1770     1.1360 ha         1 T1D       0.116000
     33 H11          6.7290    -0.0520     0.9550 ha         1 T1D       0.114500
     34 H12          6.8400    -2.2010    -0.3030 ha         1 T1D       0.114000
     35 H13          4.7900    -3.1100    -1.3920 ha         1 T1D       0.114500
     36 H14          2.6480    -1.8840    -1.2370 ha         1 T1D       0.116000
@<TRIPOS>BOND
     1     1     2 2   
     2     2     3 1   
     3     2     8 1   
     4     3     4 1   
     5     3    23 1   
     6     4     5 2   
     7     4     6 2   
     8     4     7 1   
     9     7     8 1   
    10     7     9 1   
    11     8    24 1   
    12     8    25 1   
    13     9    10 ar  
    14     9    14 ar  
    15    10    11 ar  
    16    10    26 1   
    17    11    12 ar  
    18    11    17 1   
    19    12    13 ar  
    20    12    27 1   
    21    13    14 ar  
    22    13    28 1   
    23    14    15 1   
    24    15    16 1   
    25    16    29 1   
    26    16    30 1   
    27    16    31 1   
    28    17    18 ar  
    29    17    22 ar  
    30    18    19 ar  
    31    18    32 1   
    32    19    20 ar  
    33    19    33 1   
    34    20    21 ar  
    35    20    34 1   
    36    21    22 ar  
    37    21    35 1   
    38    22    36 1   
@<TRIPOS>SUBSTRUCTURE
     1 T1D         1 TEMP              0 ****  ****    0 ROOT
