@<TRIPOS>MOLECULE
T1E
   48    49     1     0     0
SMALL
abcg2


@<TRIPOS>ATOM
      1 C11         13.4760    -0.2050    -7.6780 ca         1 T1E       0.398000
      2 C12         13.9500     0.9110    -8.3830 ca         1 T1E      -0.281000
      3 C15         16.0720     3.8470    -7.9970 c3         1 T1E       0.150400
      4 O18         15.2090     0.4360    -4.4710 os         1 T1E      -0.353600
      5 C20         13.9080    -0.3840    -6.3400 ca         1 T1E      -0.281000
      6 C21         12.2420    -1.0780    -9.6460 c6         1 T1E       0.225300
      7 C22         10.7790    -1.4820    -9.8740 c6         1 T1E      -0.106400
      8 C01          7.5850    -5.1410    -6.8120 c3         1 T1E       0.242100
      9 C05          8.1110    -5.4500   -10.9980 c3         1 T1E       0.125100
     10 C07         10.3240    -2.5960    -8.9160 c6         1 T1E       0.224500
     11 C08         11.5500    -3.3500    -8.4030 c6         1 T1E      -0.106400
     12 C09         12.4110    -2.4100    -7.5670 c6         1 T1E       0.225300
     13 C13         14.8040     1.8260    -7.7660 ca         1 T1E       0.207100
     14 C16         15.2210     1.6640    -6.4510 ca         1 T1E      -0.273000
     15 C17         14.7580     0.5420    -5.7550 ca         1 T1E       0.207100
     16 C19         14.7850    -0.6770    -3.6880 c3         1 T1E       0.150400
     17 N02          8.4160    -4.2570    -7.5960 nu         1 T1E      -0.943400
     18 N04          7.9430    -5.3520    -9.5600 n2         1 T1E      -0.748900
     19 N06          9.3350    -3.4380    -9.5810 nu         1 T1E      -0.940400
     20 N10         12.5980    -1.1160    -8.2330 nh         1 T1E      -0.828400
     21 O14         15.1950     2.8700    -8.5540 os         1 T1E      -0.353600
     22 H1          13.6880     1.0990    -9.4110 ha         1 T1E       0.121500
     23 H2          16.2450     4.5760    -8.7840 h1         1 T1E       0.041200
     24 H3          15.6160     4.3400    -7.1350 h1         1 T1E       0.041200
     25 H4          17.0220     3.3990    -7.6970 h1         1 T1E       0.041200
     26 H5          13.5660    -1.2290    -5.7710 ha         1 T1E       0.121500
     27 H6          12.9090    -1.7310   -10.2240 h1         1 T1E       0.044700
     28 H7          12.3790    -0.0740   -10.0280 h1         1 T1E       0.044700
     29 H8          10.1260    -0.6150    -9.7610 hc         1 T1E       0.056450
     30 H9          10.6830    -1.8260   -10.9070 hc         1 T1E       0.056450
     31 H10          7.6270    -4.8140    -5.7750 h1         1 T1E       0.036033
     32 H11          6.5440    -5.1200    -7.1470 h1         1 T1E       0.036033
     33 H12          7.9320    -6.1760    -6.8690 h1         1 T1E       0.036033
     34 H13          7.5400    -6.3030   -11.3670 h1         1 T1E       0.022033
     35 H14          7.7510    -4.5610   -11.5350 h1         1 T1E       0.022033
     36 H15          9.1560    -5.6100   -11.3040 h1         1 T1E       0.022033
     37 H16          9.8410    -2.1170    -8.0610 h1         1 T1E       0.060700
     38 H17         11.2520    -4.1940    -7.7790 hc         1 T1E       0.056450
     39 H18         12.1090    -3.7520    -9.2510 hc         1 T1E       0.056450
     40 H19         13.3810    -2.8750    -7.3570 h1         1 T1E       0.044700
     41 H20         11.9140    -2.2490    -6.6060 h1         1 T1E       0.044700
     42 H21         15.8840     2.3560    -5.9560 ha         1 T1E       0.133000
     43 H22         15.2590    -0.5560    -2.7170 h1         1 T1E       0.041200
     44 H23         13.6990    -0.6830    -3.5670 h1         1 T1E       0.041200
     45 H24         15.1060    -1.6200    -4.1380 h1         1 T1E       0.041200
     46 H25          8.8790    -3.5050    -7.1220 hn         1 T1E       0.490000
     47 H26          9.5970    -3.6960   -10.5210 hn         1 T1E       0.471000
     48 C03          8.5590    -4.3920    -8.9470 c2         1 T1E       0.836100
@<TRIPOS>BOND
     1     1     2 ar  
     2     1     5 ar  
     3     1    20 1   
     4     2    13 ar  
     5     2    22 1   
     6     3    21 1   
     7     3    23 1   
     8     3    24 1   
     9     3    25 1   
    10     4    15 1   
    11     4    16 1   
    12     5    15 ar  
    13     5    26 1   
    14     6     7 1   
    15     6    20 1   
    16     6    27 1   
    17     6    28 1   
    18     7    10 1   
    19     7    29 1   
    20     7    30 1   
    21     8    17 1   
    22     8    31 1   
    23     8    32 1   
    24     8    33 1   
    25     9    18 1   
    26     9    34 1   
    27     9    35 1   
    28     9    36 1   
    29    10    11 1   
    30    10    19 1   
    31    10    37 1   
    32    11    12 1   
    33    11    38 1   
    34    11    39 1   
    35    12    20 1   
    36    12    40 1   
    37    12    41 1   
    38    13    14 ar  
    39    13    21 1   
    40    14    15 ar  
    41    14    42 1   
    42    16    43 1   
    43    16    44 1   
    44    16    45 1   
    45    17    46 1   
    46    17    48 1   
    47    18    48 2   
    48    19    47 1   
    49    19    48 1   
@<TRIPOS>SUBSTRUCTURE
     1 T1E         1 TEMP              0 ****  ****    0 ROOT
