@<TRIPOS>MOLECULE
T1E
   48    49     1     0     0
SMALL
No Charge or Current Charge


@<TRIPOS>ATOM
      1 C11         13.4740    -0.1290    -7.6140 ca         1 T1E       0.398000
      2 C12         14.0240     0.8830    -8.4130 ca         1 T1E      -0.281000
      3 C15         16.5610     3.6040    -8.3420 c3         1 T1E       0.150400
      4 O18         15.4390     0.4100    -4.5110 os         1 T1E      -0.353600
      5 C20         13.9410    -0.3020    -6.3040 ca         1 T1E      -0.281000
      6 C21         11.5040    -0.5120    -9.1500 c6         1 T1E       0.225300
      7 C22         10.1090    -1.1760    -9.0100 c6         1 T1E      -0.106400
      8 C01          6.5630    -5.0240    -7.4750 c3         1 T1E       0.242100
      9 C05          9.4180    -5.9800   -10.5520 c3         1 T1E       0.125100
     10 C07         10.1720    -2.6500    -8.5320 c6         1 T1E       0.224500
     11 C08         11.5650    -3.2580    -8.7900 c6         1 T1E      -0.106400
     12 C09         12.6280    -2.4640    -7.9950 c6         1 T1E       0.225300
     13 C13         15.0270     1.7190    -7.9140 ca         1 T1E       0.207100
     14 C16         15.4900     1.5440    -6.5980 ca         1 T1E      -0.273000
     15 C17         14.9490     0.5360    -5.7930 ca         1 T1E       0.207100
     16 C19         14.9560    -0.5920    -3.5980 c3         1 T1E       0.150400
     17 N02          7.7630    -4.2390    -7.7980 nu         1 T1E      -0.943400
     18 N04          8.5870    -5.6670    -9.3770 n2         1 T1E      -0.748900
     19 N06          9.1340    -3.4430    -9.2070 nu         1 T1E      -0.940400
     20 N10         12.4650    -0.9810    -8.1110 nh         1 T1E      -0.828400
     21 O14         15.5270     2.6920    -8.7540 os         1 T1E      -0.353600
     22 H1          13.6880     1.0210    -9.4350 ha         1 T1E       0.121500
     23 H2          16.8090     4.2920    -9.1590 h1         1 T1E       0.041200
     24 H3          16.2340     4.2020    -7.4810 h1         1 T1E       0.041200
     25 H4          17.4740     3.0600    -8.0670 h1         1 T1E       0.041200
     26 H5          13.5010    -1.0800    -5.6910 ha         1 T1E       0.121500
     27 H6          11.9100    -0.7400   -10.1480 h1         1 T1E       0.044700
     28 H7          11.3740     0.5800    -9.0990 h1         1 T1E       0.044700
     29 H8           9.5050    -0.6030    -8.2940 hc         1 T1E       0.056450
     30 H9           9.5920    -1.0940    -9.9750 hc         1 T1E       0.056450
     31 H10          5.9770    -4.5190    -6.6950 h1         1 T1E       0.036033
     32 H11          5.9270    -5.1420    -8.3620 h1         1 T1E       0.036033
     33 H12          6.8410    -6.0210    -7.1070 h1         1 T1E       0.036033
     34 H13          9.9220    -6.9460   -10.4170 h1         1 T1E       0.022033
     35 H14          8.7990    -6.0490   -11.4560 h1         1 T1E       0.022033
     36 H15         10.1970    -5.2270   -10.7330 h1         1 T1E       0.022033
     37 H16         10.0030    -2.6560    -7.4440 h1         1 T1E       0.060700
     38 H17         11.5920    -4.3110    -8.4810 hc         1 T1E       0.056450
     39 H18         11.8000    -3.2370    -9.8630 hc         1 T1E       0.056450
     40 H19         13.6290    -2.7650    -8.3380 h1         1 T1E       0.044700
     41 H20         12.5470    -2.7560    -6.9370 h1         1 T1E       0.044700
     42 H21         16.2670     2.1770    -6.1820 ha         1 T1E       0.133000
     43 H22         15.4810    -0.5160    -2.6380 h1         1 T1E       0.041200
     44 H23         13.8830    -0.4640    -3.4100 h1         1 T1E       0.041200
     45 H24         15.1260    -1.5990    -4.0000 h1         1 T1E       0.041200
     46 H25          7.6580    -3.2350    -7.8390 hn         1 T1E       0.490000
     47 H26          9.2320    -3.5180   -10.2100 hn         1 T1E       0.471000
     48 C03          8.6690    -4.5920    -8.7070 c2         1 T1E       0.836100
@<TRIPOS>BOND
     1     1     2 ar  
     2     1     5 ar  
     3     1    20 1   
     4     2    13 ar  
     5     2    22 1   
     6     3    21 1   
     7     3    23 1   
     8     3    24 1   
     9     3    25 1   
    10     4    15 1   
    11     4    16 1   
    12     5    15 ar  
    13     5    26 1   
    14     6     7 1   
    15     6    20 1   
    16     6    27 1   
    17     6    28 1   
    18     7    10 1   
    19     7    29 1   
    20     7    30 1   
    21     8    17 1   
    22     8    31 1   
    23     8    32 1   
    24     8    33 1   
    25     9    18 1   
    26     9    34 1   
    27     9    35 1   
    28     9    36 1   
    29    10    11 1   
    30    10    19 1   
    31    10    37 1   
    32    11    12 1   
    33    11    38 1   
    34    11    39 1   
    35    12    20 1   
    36    12    40 1   
    37    12    41 1   
    38    13    14 ar  
    39    13    21 1   
    40    14    15 ar  
    41    14    42 1   
    42    16    43 1   
    43    16    44 1   
    44    16    45 1   
    45    17    46 1   
    46    17    48 1   
    47    18    48 2   
    48    19    47 1   
    49    19    48 1   
@<TRIPOS>SUBSTRUCTURE
     1 T1E         1 TEMP              0 ****  ****    0 ROOT
