@<TRIPOS>MOLECULE
T1H
   62    65     1     0     0
SMALL
bcc


@<TRIPOS>ATOM
      1 C01          7.9080    -4.7450   -11.3460 c3         1 T1H       0.206100
      2 C03          8.7250    -4.6670    -9.0020 c2         1 T1H       0.824100
      3 C05          7.4960    -5.7350    -7.3240 c3         1 T1H       0.125100
      4 C07         10.9330    -3.6700    -8.6100 c6         1 T1H       0.230500
      5 C08         12.2130    -3.4800    -9.4330 c6         1 T1H      -0.112900
      6 C09         13.1710    -2.5470    -8.7150 c6         1 T1H       0.174800
      7 C12         13.1430     1.1040    -7.9810 c          1 T1H       0.658100
      8 C15         12.9530     3.3130    -6.9550 c3         1 T1H       0.159300
      9 C16         11.6270     3.8180    -7.4790 ca         1 T1H      -0.116300
     10 C17         10.4300     3.1700    -7.1190 ca         1 T1H      -0.094000
     11 C18          9.1930     3.6200    -7.5370 ca         1 T1H      -0.132000
     12 C19          9.1770     4.7620    -8.3290 ca         1 T1H      -0.072200
     13 C21          8.7480     6.5120    -9.5790 cc         1 T1H       0.490400
     14 C23         10.3540     5.4310    -8.6970 ca         1 T1H       0.073400
     15 C24         11.5930     4.9490    -8.2730 ca         1 T1H      -0.049000
     16 C25          7.9550     7.4720   -10.3120 cc         1 T1H      -0.235500
     17 C26          6.5990     7.5270   -10.5490 cd         1 T1H       0.267200
     18 C31         11.1660    -1.1650    -8.5530 c6         1 T1H       0.174800
     19 C32         10.6210    -2.3830    -7.8200 c6         1 T1H      -0.112900
     20 N02          7.7160    -4.8180    -9.9150 nu         1 T1H      -0.899200
     21 N04          8.6720    -5.0350    -7.7720 n2         1 T1H      -0.747900
     22 N06          9.8670    -4.0850    -9.4980 nu         1 T1H      -0.835200
     23 N10         12.6260    -1.1950    -8.6730 n3         1 T1H      -0.714600
     24 N14         13.0520     1.8760    -6.8840 ns         1 T1H      -0.587900
     25 N20          8.1690     5.4780    -8.9120 na         1 T1H      -0.248300
     26 N22         10.0510     6.5180    -9.4770 nd         1 T1H      -0.577100
     27 N27          6.3460     8.6180   -11.2880 nd         1 T1H      -0.354000
     28 N28          7.4540     9.2340   -11.5190 nc         1 T1H      -0.195800
     29 N29          8.4350     8.5650   -10.9430 na         1 T1H       0.142400
     30 O13         13.1440     1.5630    -9.1110 o          1 T1H      -0.564100
     31 H013         6.9840    -5.0530   -11.8290 h1         1 T1H       0.035033
     32 H012         8.1160    -3.7270   -11.6820 h1         1 T1H       0.035033
     33 H011         8.7110    -5.3940   -11.7050 h1         1 T1H       0.035033
     34 H053         7.6330    -6.0500    -6.2890 h1         1 T1H       0.021700
     35 H052         6.5850    -5.1220    -7.3430 h1         1 T1H       0.021700
     36 H051         7.2690    -6.6470    -7.8950 h1         1 T1H       0.021700
     37 H071        11.0880    -4.4820    -7.9000 h1         1 T1H       0.085700
     38 H082        12.6930    -4.4430    -9.6170 hc         1 T1H       0.056200
     39 H081        11.9780    -3.0570   -10.4160 hc         1 T1H       0.056200
     40 H092        13.3640    -2.9500    -7.7070 h1         1 T1H       0.041700
     41 H091        14.1380    -2.5240    -9.2250 h1         1 T1H       0.041700
     42 H152        13.7630     3.7140    -7.5670 h1         1 T1H       0.055700
     43 H151        13.1130     3.6900    -5.9440 h1         1 T1H       0.055700
     44 H171        10.4770     2.2830    -6.5000 ha         1 T1H       0.128000
     45 H181         8.2830     3.1070    -7.2550 ha         1 T1H       0.138000
     46 H241        12.5070     5.4540    -8.5650 ha         1 T1H       0.149000
     47 H261         5.8220     6.8500   -10.2330 h4         1 T1H       0.044100
     48 H302         9.7620     9.9730   -11.6290 h1         1 T1H       0.073033
     49 H303        10.2070     9.2510   -10.0690 h1         1 T1H       0.073033
     50 H301        10.4190     8.3240   -11.5620 h1         1 T1H       0.073033
     51 H311        10.7140    -1.1060    -9.5490 h1         1 T1H       0.041700
     52 H312        10.8650    -0.2490    -8.0380 h1         1 T1H       0.041700
     53 H321        11.0730    -2.4380    -6.8260 hc         1 T1H       0.056200
     54 H322         9.5450    -2.2890    -7.6610 hc         1 T1H       0.056200
     55 H021         6.9470    -5.3940    -9.6180 hn         1 T1H       0.426800
     56 H061         9.7420    -3.4820   -10.2980 hn         1 T1H       0.412800
     57 H141        13.0080     1.4400    -5.9780 hn         1 T1H       0.312500
     58 H201         7.1820     5.2800    -8.8400 hn         1 T1H       0.313700
     59 C11         13.2980    -0.3840    -7.6960 c3         1 T1H       0.096800
     60 C30          9.7940     9.0530   -11.0540 c3         1 T1H       0.036600
     61 H111        12.9950    -0.6110    -6.6600 h1         1 T1H       0.042200
     62 H112        14.3720    -0.5950    -7.7450 h1         1 T1H       0.042200
@<TRIPOS>BOND
     1     1    20 1   
     2     1    31 1   
     3     1    32 1   
     4     1    33 1   
     5     2    20 1   
     6     2    21 2   
     7     2    22 1   
     8     3    21 1   
     9     3    34 1   
    10     3    35 1   
    11     3    36 1   
    12     4     5 1   
    13     4    19 1   
    14     4    22 1   
    15     4    37 1   
    16     5     6 1   
    17     5    38 1   
    18     5    39 1   
    19     6    23 1   
    20     6    40 1   
    21     6    41 1   
    22     7    24 1   
    23     7    30 2   
    24     7    59 1   
    25     8     9 1   
    26     8    24 1   
    27     8    42 1   
    28     8    43 1   
    29     9    10 ar  
    30     9    15 ar  
    31    10    11 ar  
    32    10    44 1   
    33    11    12 ar  
    34    11    45 1   
    35    12    14 ar  
    36    12    25 1   
    37    13    16 1   
    38    13    25 1   
    39    13    26 2   
    40    14    15 ar  
    41    14    26 1   
    42    15    46 1   
    43    16    17 2   
    44    16    29 1   
    45    17    27 1   
    46    17    47 1   
    47    18    19 1   
    48    18    23 1   
    49    18    51 1   
    50    18    52 1   
    51    19    53 1   
    52    19    54 1   
    53    20    55 1   
    54    22    56 1   
    55    23    59 1   
    56    24    57 1   
    57    25    58 1   
    58    27    28 2   
    59    28    29 1   
    60    29    60 1   
    61    48    60 1   
    62    49    60 1   
    63    50    60 1   
    64    59    61 1   
    65    59    62 1   
@<TRIPOS>SUBSTRUCTURE
     1 T1H         1 TEMP              0 ****  ****    0 ROOT
