@<TRIPOS>MOLECULE
T1H
   62    65     1     0     0
SMALL
No Charge or Current Charge


@<TRIPOS>ATOM
      1 C01          7.5350    -3.3590   -11.7180 c3         1 T1H       0.206100
      2 C03          8.6780    -3.4520    -9.5420 c2         1 T1H       0.824100
      3 C05          7.1570    -4.3840    -7.8880 c3         1 T1H       0.125100
      4 C07         11.0220    -2.7340    -9.0730 c6         1 T1H       0.230500
      5 C08         12.2860    -2.6850    -9.9760 c6         1 T1H      -0.112900
      6 C09         13.4570    -2.0410    -9.2020 c6         1 T1H       0.174800
      7 C12         13.9420     1.3470    -7.2820 c          1 T1H       0.591100
      8 C15         12.8230     2.9970    -5.7420 c3         1 T1H       0.159300
      9 C16         11.4990     3.4590    -6.3280 ca         1 T1H      -0.116300
     10 C17         10.3030     3.3370    -5.5740 ca         1 T1H      -0.076000
     11 C18          9.0680     3.7460    -6.1200 ca         1 T1H      -0.114000
     12 C19          9.0780     4.2670    -7.4180 ca         1 T1H      -0.072200
     13 C21          8.6120     5.1290    -9.3990 cc         1 T1H       0.490400
     14 C23         10.2160     4.3910    -8.1600 ca         1 T1H       0.073400
     15 C24         11.4550     3.9930    -7.6390 ca         1 T1H      -0.031000
     16 C25          7.7870     5.6690   -10.4380 cc         1 T1H      -0.220900
     17 C26          6.4380     5.8620   -10.4090 cd         1 T1H       0.201900
     18 C31         11.7170    -0.2900    -8.7470 c6         1 T1H       0.174800
     19 C32         10.8930    -1.4640    -8.1770 c6         1 T1H      -0.112900
     20 N02          7.7180    -2.9340   -10.3210 nu         1 T1H      -0.954400
     21 N04          8.4700    -3.9400    -8.3880 n2         1 T1H      -0.747900
     22 N06          9.8340    -2.9000    -9.9200 nu         1 T1H      -0.890400
     23 N10         13.1780    -0.6180    -8.8310 n3         1 T1H      -0.714600
     24 N14         13.1400     1.6450    -6.1970 ns         1 T1H      -0.520900
     25 N20          8.0560     4.7300    -8.1870 na         1 T1H      -0.298600
     26 N22          9.9450     4.9330    -9.4130 nd         1 T1H      -0.577100
     27 N27          6.0550     6.4030   -11.6210 nd         1 T1H      -0.354000
     28 N28          7.1070     6.5490   -12.3890 nc         1 T1H      -0.195800
     29 N29          8.1830     6.1030   -11.6780 na         1 T1H       0.163800
     30 O13         14.5480     2.2150    -7.9000 o          1 T1H      -0.564100
     31 H013         6.6800    -2.8360   -12.1660 h1         1 T1H       0.035033
     32 H012         8.4290    -3.1350   -12.3150 h1         1 T1H       0.035033
     33 H011         7.3450    -4.4400   -11.7670 h1         1 T1H       0.035033
     34 H053         7.2190    -5.4170    -7.5200 h1         1 T1H       0.021700
     35 H052         6.8280    -3.7520    -7.0530 h1         1 T1H       0.021700
     36 H051         6.3770    -4.3590    -8.6600 h1         1 T1H       0.021700
     37 H071        11.1280    -3.6040    -8.4040 h1         1 T1H       0.085700
     38 H082        12.5560    -3.7000   -10.2950 hc         1 T1H       0.056200
     39 H081        12.0970    -2.1070   -10.8910 hc         1 T1H       0.056200
     40 H092        13.6360    -2.6440    -8.2980 h1         1 T1H       0.041700
     41 H091        14.3730    -2.0980    -9.8080 h1         1 T1H       0.041700
     42 H152        13.6240     3.6900    -6.0310 h1         1 T1H       0.055700
     43 H151        12.7660     2.9950    -4.6460 h1         1 T1H       0.055700
     44 H171        10.3320     2.9210    -4.5690 ha         1 T1H       0.110000
     45 H181         8.1450     3.6570    -5.5520 ha         1 T1H       0.120000
     46 H241        12.3580     4.0880    -8.2360 ha         1 T1H       0.131000
     47 H261         5.7290     5.6530    -9.6170 h4         1 T1H       0.044100
     48 H302         9.4970     6.5400   -13.2770 h1         1 T1H       0.073033
     49 H303        10.1850     6.7570   -11.6420 h1         1 T1H       0.073033
     50 H301         9.9350     5.1110   -12.2980 h1         1 T1H       0.073033
     51 H311        11.3340    -0.0590    -9.7520 h1         1 T1H       0.041700
     52 H312        11.5390     0.6120    -8.1440 h1         1 T1H       0.041700
     53 H321        11.2560    -1.6950    -7.1670 hc         1 T1H       0.056200
     54 H322         9.8420    -1.1670    -8.0580 hc         1 T1H       0.056200
     55 H021         6.8580    -2.8310    -9.7960 hn         1 T1H       0.482000
     56 H061         9.6620    -2.2180   -10.6420 hn         1 T1H       0.468000
     57 H141        12.6730     0.8670    -5.7480 hn         1 T1H       0.312500
     58 H201         7.0790     4.7790    -7.9370 hn         1 T1H       0.364000
     59 C11         13.9990    -0.1630    -7.6600 c3         1 T1H       0.096800
     60 C30          9.5330     6.1300   -12.2610 c3         1 T1H       0.065900
     61 H111        13.7120    -0.7340    -6.7670 h1         1 T1H       0.042200
     62 H112        15.0570    -0.3900    -7.8460 h1         1 T1H       0.042200
@<TRIPOS>BOND
     1     1    20 1   
     2     1    31 1   
     3     1    32 1   
     4     1    33 1   
     5     2    20 1   
     6     2    21 2   
     7     2    22 1   
     8     3    21 1   
     9     3    34 1   
    10     3    35 1   
    11     3    36 1   
    12     4     5 1   
    13     4    19 1   
    14     4    22 1   
    15     4    37 1   
    16     5     6 1   
    17     5    38 1   
    18     5    39 1   
    19     6    23 1   
    20     6    40 1   
    21     6    41 1   
    22     7    24 1   
    23     7    30 2   
    24     7    59 1   
    25     8     9 1   
    26     8    24 1   
    27     8    42 1   
    28     8    43 1   
    29     9    10 ar  
    30     9    15 ar  
    31    10    11 ar  
    32    10    44 1   
    33    11    12 ar  
    34    11    45 1   
    35    12    14 ar  
    36    12    25 1   
    37    13    16 1   
    38    13    25 1   
    39    13    26 2   
    40    14    15 ar  
    41    14    26 1   
    42    15    46 1   
    43    16    17 2   
    44    16    29 1   
    45    17    27 1   
    46    17    47 1   
    47    18    19 1   
    48    18    23 1   
    49    18    51 1   
    50    18    52 1   
    51    19    53 1   
    52    19    54 1   
    53    20    55 1   
    54    22    56 1   
    55    23    59 1   
    56    24    57 1   
    57    25    58 1   
    58    27    28 2   
    59    28    29 1   
    60    29    60 1   
    61    48    60 1   
    62    49    60 1   
    63    50    60 1   
    64    59    61 1   
    65    59    62 1   
@<TRIPOS>SUBSTRUCTURE
     1 T1H         1 TEMP              0 ****  ****    0 ROOT
