@<TRIPOS>MOLECULE
T1I
   24    25     1     0     0
SMALL
No Charge or Current Charge


@<TRIPOS>ATOM
      1 O1         -11.2120     4.2500    16.5810 oh         1 T1I      -0.539600
      2 C2          -9.6540     2.4630    16.1980 ca         1 T1I      -0.160000
      3 C1         -10.2660     3.6610    15.7950 ca         1 T1I       0.132100
      4 C5          -8.9280     3.6670    13.7680 ca         1 T1I      -0.075000
      5 C9          -8.1180    -1.6270    16.9350 ca         1 T1I       0.132100
      6 C8          -8.7300    -0.4300    16.5350 ca         1 T1I      -0.160000
      7 C11         -6.0310    -0.8970    15.9300 ca         1 T1I      -0.075000
      8 C7          -8.0090     0.5620    15.8230 cp         1 T1I       0.000500
      9 C3          -8.6640     1.8400    15.3950 cp         1 T1I       0.000500
     10 C4          -8.3150     2.4690    14.1720 ca         1 T1I      -0.133500
     11 C6          -9.9050     4.2630    14.5820 ca         1 T1I      -0.165500
     12 C12         -6.6460     0.3010    15.5290 ca         1 T1I      -0.133500
     13 C10         -6.7680    -1.8630    16.6340 ca         1 T1I      -0.165500
     14 H1         -11.3390     3.7000    17.3830 ho         1 T1I       0.463000
     15 H2          -9.9330     2.0140    17.1480 ha         1 T1I       0.123000
     16 H3          -8.2600    -3.3260    17.8100 ho         1 T1I       0.463000
     17 H4          -8.6490     4.1310    12.8240 ha         1 T1I       0.115000
     18 H5          -9.7800    -0.2760    16.7670 ha         1 T1I       0.123000
     19 H6          -4.9830    -1.0740    15.6970 ha         1 T1I       0.115000
     20 H7          -7.5720     2.0150    13.5210 ha         1 T1I       0.118500
     21 H8         -10.3800     5.1900    14.2720 ha         1 T1I       0.122000
     22 H9          -6.0550     1.0420    14.9960 ha         1 T1I       0.118500
     23 H10         -6.2850    -2.7880    16.9410 ha         1 T1I       0.122000
     24 O2          -8.8430    -2.5610    17.6150 oh         1 T1I      -0.539600
@<TRIPOS>BOND
     1     1     3 1   
     2     1    14 1   
     3     2     3 ar  
     4     2     9 ar  
     5     2    15 1   
     6     3    11 ar  
     7     4    10 ar  
     8     4    11 ar  
     9     4    17 1   
    10     5     6 ar  
    11     5    13 ar  
    12     5    24 1   
    13     6     8 ar  
    14     6    18 1   
    15     7    12 ar  
    16     7    13 ar  
    17     7    19 1   
    18     8     9 1   
    19     8    12 ar  
    20     9    10 ar  
    21    10    20 1   
    22    11    21 1   
    23    12    22 1   
    24    13    23 1   
    25    16    24 1   
@<TRIPOS>SUBSTRUCTURE
     1 T1I         1 TEMP              0 ****  ****    0 ROOT
