@<TRIPOS>MOLECULE
T1I
   24    25     1     0     0
SMALL
abcg2


@<TRIPOS>ATOM
      1 O1         -11.1910     4.2200    16.5730 oh         1 T1I      -0.539600
      2 C2          -9.6180     2.4270    16.2010 ca         1 T1I      -0.160000
      3 C1         -10.2400     3.6080    15.8070 ca         1 T1I       0.132100
      4 C5          -8.9290     3.6240    13.7980 ca         1 T1I      -0.075000
      5 C9          -8.1080    -1.5880    16.9150 ca         1 T1I       0.132100
      6 C8          -8.7150    -0.4010    16.5170 ca         1 T1I      -0.160000
      7 C11         -6.0470    -0.8650    15.9220 ca         1 T1I      -0.075000
      8 C7          -7.9920     0.5680    15.8160 cp         1 T1I       0.000500
      9 C3          -8.6440     1.8300    15.3950 cp         1 T1I       0.000500
     10 C4          -8.3040     2.4430    14.1840 ca         1 T1I      -0.133500
     11 C6          -9.8980     4.2140    14.6000 ca         1 T1I      -0.165500
     12 C12         -6.6450     0.3230    15.5210 ca         1 T1I      -0.133500
     13 C10         -6.7670    -1.8280    16.6200 ca         1 T1I      -0.165500
     14 H1         -11.3490     3.7090    17.3780 ho         1 T1I       0.463000
     15 H2          -9.8840     1.9830    17.1540 ha         1 T1I       0.123000
     16 H3          -8.3600    -3.2770    17.7990 ho         1 T1I       0.463000
     17 H4          -8.6650     4.0870    12.8550 ha         1 T1I       0.115000
     18 H5          -9.7630    -0.2530    16.7430 ha         1 T1I       0.123000
     19 H6          -5.0030    -1.0430    15.6970 ha         1 T1I       0.115000
     20 H7          -7.5690     1.9870    13.5350 ha         1 T1I       0.118500
     21 H8         -10.3880     5.1330    14.3060 ha         1 T1I       0.122000
     22 H9          -6.0630     1.0680    14.9960 ha         1 T1I       0.118500
     23 H10         -6.3010    -2.7550    16.9330 ha         1 T1I       0.122000
     24 O2          -8.8810    -2.4900    17.5880 oh         1 T1I      -0.539600
@<TRIPOS>BOND
     1     1     3 1   
     2     1    14 1   
     3     2     3 ar  
     4     2     9 ar  
     5     2    15 1   
     6     3    11 ar  
     7     4    10 ar  
     8     4    11 ar  
     9     4    17 1   
    10     5     6 ar  
    11     5    13 ar  
    12     5    24 1   
    13     6     8 ar  
    14     6    18 1   
    15     7    12 ar  
    16     7    13 ar  
    17     7    19 1   
    18     8     9 1   
    19     8    12 ar  
    20     9    10 ar  
    21    10    20 1   
    22    11    21 1   
    23    12    22 1   
    24    13    23 1   
    25    16    24 1   
@<TRIPOS>SUBSTRUCTURE
     1 T1I         1 TEMP              0 ****  ****    0 ROOT
