@<TRIPOS>MOLECULE
T1J
   31    33     1     0     0
SMALL
No Charge or Current Charge


@<TRIPOS>ATOM
      1 C10          0.9250     0.0940    -0.3230 cc         1 T1J       0.611700
      2 C13          4.2300    -0.7760    -1.1160 ca         1 T1J      -0.060000
      3 C15          5.2490    -0.0760     1.0070 ca         1 T1J      -0.101000
      4 C17          2.8870     0.1630     0.6450 ca         1 T1J      -0.082200
      5 C02         -3.1300    -0.7290     0.2760 ca         1 T1J       0.171100
      6 C03         -4.4720    -1.1280     0.1870 ca         1 T1J      -0.153000
      7 C04         -5.4660    -0.1850    -0.1230 ca         1 T1J      -0.063000
      8 C05         -5.1110     1.1560    -0.3420 ca         1 T1J      -0.152000
      9 C06         -3.7660     1.5560    -0.2480 ca         1 T1J      -0.059000
     10 C07         -2.7610     0.6160     0.0600 ca         1 T1J      -0.208300
     11 C08         -1.3150     1.0820     0.2080 c3         1 T1J       0.245100
     12 C12          2.9870    -0.3660    -0.6130 ca         1 T1J       0.094400
     13 C14          5.3690    -0.6260    -0.2930 ca         1 T1J      -0.128000
     14 C16          3.9880     0.3290     1.4940 ca         1 T1J      -0.111000
     15 N09         -0.4070     0.2030    -0.5380 nu         1 T1J      -0.873400
     16 N11          1.7430    -0.4200    -1.2400 nd         1 T1J      -0.624100
     17 N18          1.5730     0.4560     0.8390 na         1 T1J      -0.340600
     18 H131         4.3130    -1.1970    -2.1150 ha         1 T1J       0.129000
     19 H151         6.1320     0.0350     1.6330 ha         1 T1J       0.113000
     20 H031        -4.7410    -2.1680     0.3520 ha         1 T1J       0.131000
     21 H041        -6.5080    -0.4930    -0.1940 ha         1 T1J       0.116000
     22 H051        -5.8790     1.8880    -0.5800 ha         1 T1J       0.118000
     23 H061        -3.5080     2.6010    -0.4090 ha         1 T1J       0.110000
     24 H081        -1.2150     2.1120    -0.1600 h1         1 T1J       0.046700
     25 H082        -1.0570     1.0860     1.2760 h1         1 T1J       0.046700
     26 H141         6.3450    -0.9360    -0.6600 ha         1 T1J       0.114000
     27 H161         3.8770     0.7530     2.4900 ha         1 T1J       0.116000
     28 H091        -0.6120     0.0840    -1.5300 hn         1 T1J       0.492000
     29 H181         1.1410     0.8530     1.6600 hn         1 T1J       0.357000
     30 H011        -1.3210    -1.2030     0.3020 ho         1 T1J       0.496000
     31 O01         -2.1700    -1.6510     0.5460 oh         1 T1J      -0.549100
@<TRIPOS>BOND
     1     1    15 1   
     2     1    16 2   
     3     1    17 1   
     4     2    12 ar  
     5     2    13 ar  
     6     2    18 1   
     7     3    13 ar  
     8     3    14 ar  
     9     3    19 1   
    10     4    12 ar  
    11     4    14 ar  
    12     4    17 1   
    13     5     6 ar  
    14     5    10 ar  
    15     5    31 1   
    16     6     7 ar  
    17     6    20 1   
    18     7     8 ar  
    19     7    21 1   
    20     8     9 ar  
    21     8    22 1   
    22     9    10 ar  
    23     9    23 1   
    24    10    11 1   
    25    11    15 1   
    26    11    24 1   
    27    11    25 1   
    28    12    16 1   
    29    13    26 1   
    30    14    27 1   
    31    15    28 1   
    32    17    29 1   
    33    30    31 1   
@<TRIPOS>SUBSTRUCTURE
     1 T1J         1 TEMP              0 ****  ****    0 ROOT
