@<TRIPOS>MOLECULE
T1J
   31    33     1     0     0
SMALL
abcg2


@<TRIPOS>ATOM
      1 C10          0.9200    -0.0650    -0.3180 cc         1 T1J       0.611700
      2 C13          4.2650    -0.6620    -1.1430 ca         1 T1J      -0.060000
      3 C15          5.2180     0.0890     0.9640 ca         1 T1J      -0.101000
      4 C17          2.8770     0.1570     0.6580 ca         1 T1J      -0.082200
      5 C02         -3.2010    -0.7390     0.3000 ca         1 T1J       0.171100
      6 C03         -4.5620    -1.0150     0.2000 ca         1 T1J      -0.153000
      7 C04         -5.4550    -0.0090    -0.1350 ca         1 T1J      -0.063000
      8 C05         -5.0000     1.2780    -0.3910 ca         1 T1J      -0.152000
      9 C06         -3.6430     1.5480    -0.2950 ca         1 T1J      -0.059000
     10 C07         -2.7310     0.5600     0.0590 ca         1 T1J      -0.208300
     11 C08         -1.2760     0.8910     0.2380 c3         1 T1J       0.245100
     12 C12          3.0010    -0.3630    -0.6410 ca         1 T1J       0.094400
     13 C14          5.3630    -0.4290    -0.3270 ca         1 T1J      -0.128000
     14 C16          3.9650     0.3930     1.4820 ca         1 T1J      -0.111000
     15 N09         -0.4410    -0.0750    -0.4730 nu         1 T1J      -0.873400
     16 N11          1.7610    -0.4860    -1.2250 nd         1 T1J      -0.624100
     17 N18          1.5240     0.3400     0.8310 na         1 T1J      -0.340600
     18 H131         4.3860    -1.0640    -2.1410 ha         1 T1J       0.129000
     19 H151         6.0970     0.2560     1.5720 ha         1 T1J       0.113000
     20 H031        -4.9130    -2.0220     0.3900 ha         1 T1J       0.131000
     21 H041        -6.5110    -0.2370    -0.2060 ha         1 T1J       0.116000
     22 H051        -5.6940     2.0640    -0.6610 ha         1 T1J       0.118000
     23 H061        -3.2780     2.5490    -0.4920 ha         1 T1J       0.110000
     24 H081        -1.0790     1.9160    -0.0890 h1         1 T1J       0.046700
     25 H082        -1.0330     0.8440     1.3030 h1         1 T1J       0.046700
     26 H141         6.3560    -0.6520    -0.6970 ha         1 T1J       0.114000
     27 H161         3.8500     0.7950     2.4800 ha         1 T1J       0.116000
     28 H091        -0.6920    -0.1780    -1.4480 hn         1 T1J       0.492000
     29 H181         1.0770     0.6790     1.6670 hn         1 T1J       0.357000
     30 H011        -1.4630    -1.5060     0.3830 ho         1 T1J       0.496000
     31 O01         -2.3710    -1.7440     0.6460 oh         1 T1J      -0.549100
@<TRIPOS>BOND
     1     1    15 1   
     2     1    16 2   
     3     1    17 1   
     4     2    12 ar  
     5     2    13 ar  
     6     2    18 1   
     7     3    13 ar  
     8     3    14 ar  
     9     3    19 1   
    10     4    12 ar  
    11     4    14 ar  
    12     4    17 1   
    13     5     6 ar  
    14     5    10 ar  
    15     5    31 1   
    16     6     7 ar  
    17     6    20 1   
    18     7     8 ar  
    19     7    21 1   
    20     8     9 ar  
    21     8    22 1   
    22     9    10 ar  
    23     9    23 1   
    24    10    11 1   
    25    11    15 1   
    26    11    24 1   
    27    11    25 1   
    28    12    16 1   
    29    13    26 1   
    30    14    27 1   
    31    15    28 1   
    32    17    29 1   
    33    30    31 1   
@<TRIPOS>SUBSTRUCTURE
     1 T1J         1 TEMP              0 ****  ****    0 ROOT
