@<TRIPOS>MOLECULE
T1K
   36    38     1     0     0
SMALL
abcg2


@<TRIPOS>ATOM
      1 C1         -31.6430   -12.3010    15.7910 ca         1 T1K      -0.157000
      2 C2         -31.4520   -12.9580    16.9980 ca         1 T1K      -0.054000
      3 C3         -30.6740   -12.4100    14.8060 ca         1 T1K      -0.056000
      4 C7         -29.5200   -13.1690    14.9910 ca         1 T1K      -0.188500
      5 C8         -29.3360   -13.8210    16.2200 ca         1 T1K       0.183100
      6 C9         -27.1950   -14.4800    12.5500 cc         1 T1K       0.410500
      7 C10        -28.1470   -12.0620    13.2390 cd         1 T1K      -0.287000
      8 C11        -28.5310   -13.2530    13.8940 cd         1 T1K       0.474500
      9 C12        -27.2480   -12.0990    12.1980 cc         1 T1K       0.343000
     10 C13        -25.0560   -10.3960     9.8530 c3         1 T1K      -0.100100
     11 C14        -27.6010    -9.7990    11.6390 c3         1 T1K       0.191100
     12 C15        -25.3950   -10.7770    11.2820 c3         1 T1K       0.205800
     13 N18        -26.7940   -13.3440    11.8460 na         1 T1K      -0.095400
     14 C4         -30.3080   -13.7080    17.2120 ca         1 T1K      -0.219000
     15 C5         -25.9240   -15.1360    10.9760 cd         1 T1K      -0.026400
     16 C6         -25.9860   -13.7820    10.8200 cc         1 T1K      -0.291100
     17 N16        -26.6580   -15.5640    12.0330 nd         1 T1K      -0.274600
     18 N17        -28.0560   -14.4310    13.5680 nc         1 T1K      -0.625000
     19 N19        -26.8300   -11.0180    11.4840 nh         1 T1K      -0.810400
     20 O20        -28.2030   -14.5150    16.4210 oh         1 T1K      -0.505100
     21 H1         -32.5340   -11.7140    15.6160 ha         1 T1K       0.118000
     22 H2         -32.1940   -12.8860    17.7830 ha         1 T1K       0.113000
     23 H3         -30.8200   -11.9070    13.8580 ha         1 T1K       0.115000
     24 H4         -28.5210   -11.1140    13.5930 ha         1 T1K       0.136000
     25 H5         -23.9880   -10.1970     9.7680 hc         1 T1K       0.044033
     26 H6         -25.3090   -11.1910     9.1520 hc         1 T1K       0.044033
     27 H7         -25.5810    -9.4940     9.5370 hc         1 T1K       0.044033
     28 H8         -28.6650   -10.0030    11.5330 h1         1 T1K       0.043700
     29 H9         -27.4270    -9.3120    12.6040 h1         1 T1K       0.043700
     30 H10        -27.3200    -9.1010    10.8550 h1         1 T1K       0.043700
     31 H11        -24.8280   -11.6550    11.5840 h1         1 T1K       0.049700
     32 H12        -25.0870    -9.9780    11.9650 h1         1 T1K       0.049700
     33 H13        -30.1610   -14.2070    18.1640 ha         1 T1K       0.115000
     34 H14        -25.3750   -15.8270    10.3520 h4         1 T1K       0.225000
     35 H15        -25.5530   -13.1390    10.0760 h4         1 T1K       0.232000
     36 H17        -28.1810   -14.8610    17.3210 ho         1 T1K       0.463000
@<TRIPOS>BOND
     1     1     2 ar  
     2     1     3 ar  
     3     1    21 1   
     4     2    14 ar  
     5     2    22 1   
     6     3     4 ar  
     7     3    23 1   
     8     4     5 ar  
     9     4     8 1   
    10     5    14 ar  
    11     5    20 1   
    12     6    13 1   
    13     6    17 2   
    14     6    18 1   
    15     7     8 1   
    16     7     9 2   
    17     7    24 1   
    18     8    18 2   
    19     9    13 1   
    20     9    19 1   
    21    10    12 1   
    22    10    25 1   
    23    10    26 1   
    24    10    27 1   
    25    11    19 1   
    26    11    28 1   
    27    11    29 1   
    28    11    30 1   
    29    12    19 1   
    30    12    31 1   
    31    12    32 1   
    32    13    16 1   
    33    14    33 1   
    34    15    16 2   
    35    15    17 1   
    36    15    34 1   
    37    16    35 1   
    38    20    36 1   
@<TRIPOS>SUBSTRUCTURE
     1 T1K         1 TEMP              0 ****  ****    0 ROOT
