@<TRIPOS>MOLECULE
T1K
   36    38     1     0     0
SMALL
No Charge or Current Charge


@<TRIPOS>ATOM
      1 C1         -31.8380   -13.7770    15.9010 ca         1 T1K      -0.157000
      2 C2         -31.4040   -13.2350    17.1200 ca         1 T1K      -0.054000
      3 C3         -30.9740   -13.8050    14.7940 ca         1 T1K      -0.056000
      4 C7         -29.6670   -13.2770    14.8890 ca         1 T1K      -0.188500
      5 C8         -29.2310   -12.7550    16.1270 ca         1 T1K       0.183100
      6 C9         -27.8690   -14.4870    12.0130 cc         1 T1K       0.410500
      7 C10        -28.0780   -12.1550    13.2590 cd         1 T1K      -0.287000
      8 C11        -28.7680   -13.3330    13.7220 cd         1 T1K       0.474500
      9 C12        -27.2320   -12.1650    12.1640 cc         1 T1K       0.343000
     10 C13        -24.4900   -10.4320    10.3720 c3         1 T1K      -0.100100
     11 C14        -27.1920    -9.6950    11.8210 c3         1 T1K       0.191100
     12 C15        -25.0660   -11.0380    11.6680 c3         1 T1K       0.205800
     13 N18        -27.1210   -13.4330    11.5900 na         1 T1K      -0.095400
     14 C4         -30.0990   -12.7300    17.2320 ca         1 T1K      -0.219000
     15 C5         -26.8030   -15.0230    10.1930 cd         1 T1K      -0.026400
     16 C6         -26.4830   -13.6980    10.4030 cc         1 T1K      -0.291100
     17 N16        -27.6560   -15.4980    11.1890 nd         1 T1K      -0.274600
     18 N17        -28.6990   -14.5030    13.0940 nc         1 T1K      -0.625000
     19 N19        -26.5480   -11.0300    11.7470 nh         1 T1K      -0.810400
     20 O20        -27.9590   -12.2920    16.2830 oh         1 T1K      -0.505100
     21 H1         -32.8460   -14.1770    15.8140 ha         1 T1K       0.118000
     22 H2         -32.0740   -13.2150    17.9780 ha         1 T1K       0.113000
     23 H3         -31.3260   -14.2290    13.8550 ha         1 T1K       0.115000
     24 H4         -28.2210   -11.2350    13.8070 ha         1 T1K       0.136000
     25 H5         -23.4010   -10.5530    10.3530 hc         1 T1K       0.044033
     26 H6         -24.9050   -10.9260     9.4870 hc         1 T1K       0.044033
     27 H7         -24.7100    -9.3610    10.3070 hc         1 T1K       0.044033
     28 H8         -28.2870    -9.7890    11.8220 h1         1 T1K       0.043700
     29 H9         -26.8880    -9.1700    12.7370 h1         1 T1K       0.043700
     30 H10        -26.9140    -9.0770    10.9570 h1         1 T1K       0.043700
     31 H11        -24.6920   -12.0670    11.7610 h1         1 T1K       0.049700
     32 H12        -24.6540   -10.4810    12.5210 h1         1 T1K       0.049700
     33 H13        -29.7660   -12.3260    18.1850 ha         1 T1K       0.115000
     34 H14        -26.4900   -15.6600     9.3680 h4         1 T1K       0.225000
     35 H15        -25.8940   -12.9860     9.8370 h4         1 T1K       0.232000
     36 H17        -27.8520   -11.9960    17.2110 ho         1 T1K       0.463000
@<TRIPOS>BOND
     1     1     2 ar  
     2     1     3 ar  
     3     1    21 1   
     4     2    14 ar  
     5     2    22 1   
     6     3     4 ar  
     7     3    23 1   
     8     4     5 ar  
     9     4     8 1   
    10     5    14 ar  
    11     5    20 1   
    12     6    13 1   
    13     6    17 2   
    14     6    18 1   
    15     7     8 1   
    16     7     9 2   
    17     7    24 1   
    18     8    18 2   
    19     9    13 1   
    20     9    19 1   
    21    10    12 1   
    22    10    25 1   
    23    10    26 1   
    24    10    27 1   
    25    11    19 1   
    26    11    28 1   
    27    11    29 1   
    28    11    30 1   
    29    12    19 1   
    30    12    31 1   
    31    12    32 1   
    32    13    16 1   
    33    14    33 1   
    34    15    16 2   
    35    15    17 1   
    36    15    34 1   
    37    16    35 1   
    38    20    36 1   
@<TRIPOS>SUBSTRUCTURE
     1 T1K         1 TEMP              0 ****  ****    0 ROOT
