@<TRIPOS>MOLECULE
T1M
   34    35     1     0     0
SMALL
No Charge or Current Charge


@<TRIPOS>ATOM
      1 C10          1.8320    -0.1580     0.5940 ca         1 T1M      -0.089300
      2 C13          4.3500     0.2060    -0.6260 ca         1 T1M      -0.112000
      3 C15          2.2700     1.1330     0.2350 ca         1 T1M      -0.100000
      4 C01         -2.4300    -1.1890     1.8140 c3         1 T1M      -0.127100
      5 C02         -1.9910     0.1140     1.0740 c6         1 T1M       0.201500
      6 C03         -3.1290     0.6230     0.1100 c6         1 T1M       0.178300
      7 C05         -3.2160    -0.2610    -1.1620 c6         1 T1M      -0.111400
      8 C06         -1.8290    -0.4060    -1.8400 c6         1 T1M      -0.070400
      9 C07         -0.7530    -0.9030    -0.8420 c6         1 T1M       0.181800
     10 C09          0.4690    -0.3490     1.2560 c3         1 T1M       0.232100
     11 C11          2.6650    -1.2660     0.3360 ca         1 T1M      -0.100000
     12 C12          3.9200    -1.0840    -0.2720 ca         1 T1M      -0.116000
     13 C14          3.5250     1.3140    -0.3730 ca         1 T1M      -0.116000
     14 N08         -0.6700    -0.0240     0.3610 n3         1 T1M      -0.738600
     15 O04         -2.9330     2.0000    -0.2620 oh         1 T1M      -0.646000
     16 H131         5.3210     0.3460    -1.0970 ha         1 T1M       0.109000
     17 H151         1.6320     1.9940     0.4260 ha         1 T1M       0.122000
     18 H011        -1.7150    -1.4710     2.5940 hc         1 T1M       0.038367
     19 H013        -3.3970    -1.0460     2.3100 hc         1 T1M       0.038367
     20 H012        -2.5350    -2.0410     1.1330 hc         1 T1M       0.038367
     21 H031        -4.0880     0.5430     0.6420 h1         1 T1M       0.026700
     22 H051        -3.5950    -1.2560    -0.8940 hc         1 T1M       0.040700
     23 H052        -3.9420     0.1570    -1.8720 hc         1 T1M       0.040700
     24 H061        -1.8980    -1.1040    -2.6860 hc         1 T1M       0.048700
     25 H062        -1.5160     0.5590    -2.2600 hc         1 T1M       0.048700
     26 H071        -0.9780    -1.9390    -0.5500 h1         1 T1M       0.031700
     27 H072         0.2130    -0.9270    -1.3690 h1         1 T1M       0.031700
     28 H091         0.3890    -1.3850     1.6110 h1         1 T1M       0.035700
     29 H092         0.4370     0.2960     2.1450 h1         1 T1M       0.035700
     30 H111         2.3400    -2.2680     0.6060 ha         1 T1M       0.122000
     31 H121         4.5580    -1.9430    -0.4690 ha         1 T1M       0.109500
     32 H141         3.8560     2.3130    -0.6480 ha         1 T1M       0.109500
     33 H041        -3.5840     2.1910    -0.9690 ho         1 T1M       0.436000
     34 H021        -1.8860     0.8790     1.8590 h1         1 T1M       0.068700
@<TRIPOS>BOND
     1     1     3 ar  
     2     1    10 1   
     3     1    11 ar  
     4     2    12 ar  
     5     2    13 ar  
     6     2    16 1   
     7     3    13 ar  
     8     3    17 1   
     9     4     5 1   
    10     4    18 1   
    11     4    19 1   
    12     4    20 1   
    13     5     6 1   
    14     5    14 1   
    15     5    34 1   
    16     6     7 1   
    17     6    15 1   
    18     6    21 1   
    19     7     8 1   
    20     7    22 1   
    21     7    23 1   
    22     8     9 1   
    23     8    24 1   
    24     8    25 1   
    25     9    14 1   
    26     9    26 1   
    27     9    27 1   
    28    10    14 1   
    29    10    28 1   
    30    10    29 1   
    31    11    12 ar  
    32    11    30 1   
    33    12    31 1   
    34    13    32 1   
    35    15    33 1   
@<TRIPOS>SUBSTRUCTURE
     1 T1M         1 TEMP              0 ****  ****    0 ROOT
