@<TRIPOS>MOLECULE
T1N
   30    31     1     0     0
SMALL
No Charge or Current Charge


@<TRIPOS>ATOM
      1 CAA          5.8090     0.8870    -0.4590 c3         1 T1N       0.030900
      2 CAB         -4.1710    -0.0050     1.7810 c3         1 T1N      -0.054100
      3 OAD         -4.3330    -0.9190    -1.1030 o          1 T1N      -0.722500
      4 CAE          2.7260     1.2880    -0.1950 ca         1 T1N      -0.134000
      5 CAF         -1.6080    -1.2290     0.5820 ca         1 T1N      -0.054000
      6 CAG          1.3760     1.6710    -0.1080 ca         1 T1N      -0.087000
      7 CAH         -0.2590    -1.6150     0.4940 ca         1 T1N      -0.132000
      8 CAI          2.0910    -1.0300     0.1770 ca         1 T1N      -0.077000
      9 CAJ         -0.9740     1.0880     0.2110 ca         1 T1N      -0.139000
     10 SAK          4.7950    -0.6280    -0.1530 ss         1 T1N      -0.209000
     11 CAL         -4.1990     0.2500    -0.7690 c          1 T1N       0.723000
     12 CAM          3.0910    -0.0670    -0.0530 ca         1 T1N      -0.110000
     13 CAN         -1.9780     0.1260     0.4450 ca         1 T1N       0.029700
     14 CAO          0.7380    -0.6500     0.2660 ca         1 T1N      -0.039000
     15 CAP          0.3780     0.7060     0.1230 ca         1 T1N      -0.026000
     16 CAQ         -3.4420     0.5670     0.5400 c3         1 T1N      -0.178400
     17 HAA          5.6800     1.5950     0.3690 h1         1 T1N       0.057033
     18 HAAA         6.8670     0.6090    -0.5310 h1         1 T1N       0.057033
     19 HAAB         5.4980     1.3590    -1.4000 h1         1 T1N       0.057033
     20 HAB         -4.2730    -1.0950     1.7250 hc         1 T1N       0.017700
     21 HABA        -3.6220     0.2440     2.6970 hc         1 T1N       0.017700
     22 HABB        -5.1780     0.4230     1.8610 hc         1 T1N       0.017700
     23 HAE          3.4710     2.0580    -0.3730 ha         1 T1N       0.096000
     24 HAF         -2.3650    -1.9900     0.7490 ha         1 T1N       0.125000
     25 HAG          1.1070     2.7180    -0.2190 ha         1 T1N       0.103000
     26 HAH          0.0070    -2.6630     0.6020 ha         1 T1N       0.098000
     27 HAI          2.3670    -2.0750     0.2870 ha         1 T1N       0.111000
     28 HAJ         -1.2440     2.1350     0.0990 ha         1 T1N       0.104000
     29 HAQ         -3.4570     1.6580     0.6590 hc         1 T1N       0.037700
     30 OAC         -4.6150     1.1880    -1.4330 o          1 T1N      -0.722500
@<TRIPOS>BOND
     1     1    10 1   
     2     1    17 1   
     3     1    18 1   
     4     1    19 1   
     5     2    16 1   
     6     2    20 1   
     7     2    21 1   
     8     2    22 1   
     9     3    11 1   
    10     4     6 ar  
    11     4    12 ar  
    12     4    23 1   
    13     5     7 ar  
    14     5    13 ar  
    15     5    24 1   
    16     6    15 ar  
    17     6    25 1   
    18     7    14 ar  
    19     7    26 1   
    20     8    12 ar  
    21     8    14 ar  
    22     8    27 1   
    23     9    13 ar  
    24     9    15 ar  
    25     9    28 1   
    26    10    12 1   
    27    11    16 1   
    28    11    30 1   
    29    13    16 1   
    30    14    15 ar  
    31    16    29 1   
@<TRIPOS>SUBSTRUCTURE
     1 T1N         1 TEMP              0 ****  ****    0 ROOT
