@<TRIPOS>MOLECULE
T1N
   30    31     1     0     0
SMALL
abcg2


@<TRIPOS>ATOM
      1 CAA          5.7220     0.7890    -0.3160 c3         1 T1N       0.030900
      2 CAB         -3.9620     0.3280     1.8130 c3         1 T1N      -0.054100
      3 OAD         -3.7410    -0.4780    -1.7110 o          1 T1N      -0.722500
      4 CAE          2.7320     1.2590    -0.1240 ca         1 T1N      -0.134000
      5 CAF         -1.6300    -1.1930     0.4030 ca         1 T1N      -0.054000
      6 CAG          1.4200     1.6500    -0.0820 ca         1 T1N      -0.087000
      7 CAH         -0.3280    -1.5980     0.3610 ca         1 T1N      -0.132000
      8 CAI          2.0760    -1.0420     0.1480 ca         1 T1N      -0.077000
      9 CAJ         -0.9850     1.0950     0.1350 ca         1 T1N      -0.139000
     10 SAK          4.7360    -0.6940    -0.0380 ss         1 T1N      -0.209000
     11 CAL         -4.3190    -0.0480    -0.6950 c          1 T1N       0.723000
     12 CAM          3.0730    -0.1070    -0.0080 ca         1 T1N      -0.110000
     13 CAN         -1.9880     0.1770     0.2920 ca         1 T1N       0.029700
     14 CAO          0.7210    -0.6570     0.1970 ca         1 T1N      -0.039000
     15 CAP          0.3780     0.7130     0.0800 ca         1 T1N      -0.026000
     16 CAQ         -3.4280     0.5890     0.4050 c3         1 T1N      -0.178400
     17 HAA          5.6070     1.5100     0.4900 h1         1 T1N       0.057033
     18 HAAA         6.7570     0.4540    -0.3350 h1         1 T1N       0.057033
     19 HAAB         5.4920     1.2570    -1.2710 h1         1 T1N       0.057033
     20 HAB         -3.9510    -0.7370     2.0580 hc         1 T1N       0.017700
     21 HABA        -3.3620     0.8450     2.5630 hc         1 T1N       0.017700
     22 HABB        -4.9890     0.6760     1.9070 hc         1 T1N       0.017700
     23 HAE          3.4990     2.0110    -0.2420 ha         1 T1N       0.096000
     24 HAF         -2.4090    -1.9350     0.5250 ha         1 T1N       0.125000
     25 HAG          1.1760     2.7020    -0.1720 ha         1 T1N       0.103000
     26 HAH         -0.0820    -2.6500     0.4490 ha         1 T1N       0.098000
     27 HAI          2.3190    -2.0960     0.2390 ha         1 T1N       0.111000
     28 HAJ         -1.2260     2.1500     0.0500 ha         1 T1N       0.104000
     29 HAQ         -3.4750     1.6730     0.2370 hc         1 T1N       0.037700
     30 OAC         -5.5480    -0.0410    -0.4870 o          1 T1N      -0.722500
@<TRIPOS>BOND
     1     1    10 1   
     2     1    17 1   
     3     1    18 1   
     4     1    19 1   
     5     2    16 1   
     6     2    20 1   
     7     2    21 1   
     8     2    22 1   
     9     3    11 1   
    10     4     6 ar  
    11     4    12 ar  
    12     4    23 1   
    13     5     7 ar  
    14     5    13 ar  
    15     5    24 1   
    16     6    15 ar  
    17     6    25 1   
    18     7    14 ar  
    19     7    26 1   
    20     8    12 ar  
    21     8    14 ar  
    22     8    27 1   
    23     9    13 ar  
    24     9    15 ar  
    25     9    28 1   
    26    10    12 1   
    27    11    16 1   
    28    11    30 1   
    29    13    16 1   
    30    14    15 ar  
    31    16    29 1   
@<TRIPOS>SUBSTRUCTURE
     1 T1N         1 TEMP              0 ****  ****    0 ROOT
