@<TRIPOS>MOLECULE
T1O
   41    42     1     0     0
SMALL
No Charge or Current Charge


@<TRIPOS>ATOM
      1 O01         -6.2780    -2.0130    -0.0950 o          1 T1O      -0.571000
      2 C02         -5.5660    -1.0690    -0.3710 c          1 T1O       0.597000
      3 N03         -4.3230    -1.1540    -0.9010 ns         1 T1O      -0.507900
      4 C04         -3.6920     0.1550    -1.0870 c5         1 T1O       0.086700
      5 C05         -4.8440     1.1470    -0.6520 c5         1 T1O       0.100700
      6 C06         -4.3730     1.9140     0.6250 c5         1 T1O       0.030600
      7 S07         -2.5360     2.0150     0.4660 ss         1 T1O      -0.422000
      8 N08         -5.8960     0.2340    -0.2060 ns         1 T1O      -0.520900
      9 C09         -2.5580     0.2300    -0.0100 c5         1 T1O       0.074300
     10 C10         -1.1730    -0.2410    -0.5160 c3         1 T1O      -0.060400
     11 C11         -0.0650    -0.2460     0.5630 c3         1 T1O      -0.079400
     12 C12          1.2910    -0.7630     0.0340 c3         1 T1O      -0.063400
     13 C13          2.3990    -0.7680     1.1140 c3         1 T1O      -0.155400
     14 C14          3.7300    -1.2810     0.5550 c          1 T1O       0.601100
     15 N15          4.6950    -0.3200     0.3630 ns         1 T1O      -0.506900
     16 C16          6.0580    -0.5880    -0.1550 c3         1 T1O      -0.004000
     17 C17          6.9100     0.6990    -0.2700 c          1 T1O       0.563100
     18 C18          8.3310     0.5160    -0.7980 c3         1 T1O      -0.201100
     19 O19          6.4810     1.8050     0.0410 o          1 T1O      -0.525100
     20 O20          3.9370    -2.4630     0.3220 o          1 T1O      -0.607100
     21 H1          -3.9240    -2.0630    -1.1030 hn         1 T1O       0.332500
     22 H2          -3.3380     0.3430    -2.1100 h1         1 T1O       0.066700
     23 H3          -5.1510     1.8140    -1.4700 h1         1 T1O       0.079700
     24 H4          -4.8190     2.9150     0.6940 h1         1 T1O       0.081200
     25 H5          -4.6150     1.3670     1.5460 h1         1 T1O       0.081200
     26 H6          -6.8100     0.4790     0.1560 hn         1 T1O       0.341500
     27 H7          -2.8260    -0.3560     0.8810 h1         1 T1O       0.088700
     28 H8          -1.2680    -1.2580    -0.9160 hc         1 T1O       0.049700
     29 H9          -0.8540     0.3910    -1.3540 hc         1 T1O       0.049700
     30 H10          0.0700     0.7690     0.9550 hc         1 T1O       0.046700
     31 H11         -0.3860    -0.8730     1.4050 hc         1 T1O       0.046700
     32 H12          1.1630    -1.7810    -0.3570 hc         1 T1O       0.055200
     33 H13          1.6130    -0.1370    -0.8080 hc         1 T1O       0.055200
     34 H14          2.5210     0.2550     1.4910 hc         1 T1O       0.059200
     35 H15          2.0850    -1.4290     1.9310 hc         1 T1O       0.059200
     36 H16          4.4420     0.6370     0.5900 hn         1 T1O       0.334500
     37 H17          6.5770    -1.2850     0.5150 h1         1 T1O       0.071200
     38 H18          5.9910    -1.0450    -1.1500 h1         1 T1O       0.071200
     39 H19          8.2870     0.0090    -1.7680 hc         1 T1O       0.066700
     40 H20          8.8850     1.4600    -0.8570 hc         1 T1O       0.066700
     41 H21          8.8490    -0.2210    -0.1740 hc         1 T1O       0.066700
@<TRIPOS>BOND
     1     1     2 2   
     2     2     3 1   
     3     2     8 1   
     4     3     4 1   
     5     3    21 1   
     6     4     5 1   
     7     4     9 1   
     8     4    22 1   
     9     5     6 1   
    10     5     8 1   
    11     5    23 1   
    12     6     7 1   
    13     6    24 1   
    14     6    25 1   
    15     7     9 1   
    16     8    26 1   
    17     9    10 1   
    18     9    27 1   
    19    10    11 1   
    20    10    28 1   
    21    10    29 1   
    22    11    12 1   
    23    11    30 1   
    24    11    31 1   
    25    12    13 1   
    26    12    32 1   
    27    12    33 1   
    28    13    14 1   
    29    13    34 1   
    30    13    35 1   
    31    14    15 1   
    32    14    20 2   
    33    15    16 1   
    34    15    36 1   
    35    16    17 1   
    36    16    37 1   
    37    16    38 1   
    38    17    18 1   
    39    17    19 2   
    40    18    39 1   
    41    18    40 1   
    42    18    41 1   
@<TRIPOS>SUBSTRUCTURE
     1 T1O         1 TEMP              0 ****  ****    0 ROOT
