@<TRIPOS>MOLECULE
T1O
   41    42     1     0     0
SMALL
abcg2


@<TRIPOS>ATOM
      1 O01         -6.6800    -2.0180     0.6260 o          1 T1O      -0.571000
      2 C02         -5.8710    -1.2050     0.2070 c          1 T1O       0.597000
      3 N03         -4.5420    -1.4360    -0.0200 ns         1 T1O      -0.507900
      4 C04         -3.8790    -0.3060    -0.6280 c5         1 T1O       0.086700
      5 C05         -4.9480     0.8160    -0.5220 c5         1 T1O       0.100700
      6 C06         -4.4520     1.8610     0.4780 c5         1 T1O       0.030600
      7 S07         -2.6690     1.9480     0.1760 ss         1 T1O      -0.422000
      8 N08         -6.1230     0.0890    -0.1210 ns         1 T1O      -0.520900
      9 C09         -2.5990     0.1220     0.1130 c5         1 T1O       0.074300
     10 C10         -1.3230    -0.3840    -0.5360 c3         1 T1O      -0.060400
     11 C11         -0.0480     0.0870     0.1500 c3         1 T1O      -0.079400
     12 C12          1.2020    -0.5370    -0.4560 c3         1 T1O      -0.063400
     13 C13          2.4680     0.0080     0.1840 c3         1 T1O      -0.155400
     14 C14          3.7470    -0.5610    -0.3950 c          1 T1O       0.601100
     15 N15          4.8750    -0.0590     0.1360 ns         1 T1O      -0.506900
     16 C16          6.1800    -0.4780    -0.2830 c3         1 T1O      -0.004000
     17 C17          7.2640     0.2520     0.4710 c          1 T1O       0.563100
     18 C18          8.6630    -0.0290     0.0120 c3         1 T1O      -0.201100
     19 O19          7.0060     1.0200     1.3690 o          1 T1O      -0.525100
     20 O20          3.7640    -1.4080    -1.2770 o          1 T1O      -0.607100
     21 H1          -4.2350    -2.3760    -0.2060 hn         1 T1O       0.332500
     22 H2          -3.6390    -0.5060    -1.6760 h1         1 T1O       0.066700
     23 H3          -5.0920     1.3000    -1.4890 h1         1 T1O       0.079700
     24 H4          -4.9040     2.8400     0.3220 h1         1 T1O       0.081200
     25 H5          -4.6440     1.5440     1.5050 h1         1 T1O       0.081200
     26 H6          -6.9790     0.5430     0.1550 hn         1 T1O       0.341500
     27 H7          -2.6600    -0.2430     1.1430 h1         1 T1O       0.088700
     28 H8          -1.3560    -1.4790    -0.5270 hc         1 T1O       0.049700
     29 H9          -1.3100    -0.0850    -1.5890 hc         1 T1O       0.049700
     30 H10          0.0270     1.1770     0.0820 hc         1 T1O       0.046700
     31 H11         -0.0990    -0.1470     1.2190 hc         1 T1O       0.046700
     32 H12          1.1610    -1.6230    -0.3380 hc         1 T1O       0.055200
     33 H13          1.2180    -0.3440    -1.5320 hc         1 T1O       0.055200
     34 H14          2.4980     1.0980     0.0860 hc         1 T1O       0.059200
     35 H15          2.4590    -0.1850     1.2620 hc         1 T1O       0.059200
     36 H16          4.8210     0.6280     0.8730 hn         1 T1O       0.334500
     37 H17          6.3330    -1.5520    -0.1240 h1         1 T1O       0.071200
     38 H18          6.3360    -0.3120    -1.3550 h1         1 T1O       0.071200
     39 H19          8.8740     0.5890    -0.8650 hc         1 T1O       0.066700
     40 H20          9.3880     0.2180     0.7840 hc         1 T1O       0.066700
     41 H21          8.7870    -1.0670    -0.2930 hc         1 T1O       0.066700
@<TRIPOS>BOND
     1     1     2 2   
     2     2     3 1   
     3     2     8 1   
     4     3     4 1   
     5     3    21 1   
     6     4     5 1   
     7     4     9 1   
     8     4    22 1   
     9     5     6 1   
    10     5     8 1   
    11     5    23 1   
    12     6     7 1   
    13     6    24 1   
    14     6    25 1   
    15     7     9 1   
    16     8    26 1   
    17     9    10 1   
    18     9    27 1   
    19    10    11 1   
    20    10    28 1   
    21    10    29 1   
    22    11    12 1   
    23    11    30 1   
    24    11    31 1   
    25    12    13 1   
    26    12    32 1   
    27    12    33 1   
    28    13    14 1   
    29    13    34 1   
    30    13    35 1   
    31    14    15 1   
    32    14    20 2   
    33    15    16 1   
    34    15    36 1   
    35    16    17 1   
    36    16    37 1   
    37    16    38 1   
    38    17    18 1   
    39    17    19 2   
    40    18    39 1   
    41    18    40 1   
    42    18    41 1   
@<TRIPOS>SUBSTRUCTURE
     1 T1O         1 TEMP              0 ****  ****    0 ROOT
