@<TRIPOS>MOLECULE
T1Q
   55    57     1     0     0
SMALL
No Charge or Current Charge


@<TRIPOS>ATOM
      1 N1          -4.7990     1.3000     0.4920 nb         1 T1Q      -0.260000
      2 C2          -5.0870     0.1160    -0.0750 ca         1 T1Q       0.433900
      3 N3          -4.2250    -0.8610    -0.3890 nb         1 T1Q      -0.320000
      4 C4          -2.9260    -0.6330    -0.1080 ca         1 T1Q       0.322900
      5 C5          -2.5170     0.5680     0.4840 ca         1 T1Q      -0.313800
      6 C6          -3.5040     1.5260     0.7720 ca         1 T1Q       0.211900
      7 N7          -1.9610    -1.6470    -0.4240 n          1 T1Q      -0.360300
      8 C8          -0.5800    -1.4810    -0.1490 c          1 T1Q       0.580200
      9 C9          -0.1870    -0.1900     0.4770 cc         1 T1Q      -0.173400
     10 C10         -1.1080     0.7870     0.7790 cd         1 T1Q      -0.006200
     11 C11         -2.4300    -2.9130    -1.0540 c3         1 T1Q       0.079300
     12 O12          0.2430    -2.3510    -0.4060 o          1 T1Q      -0.537000
     13 C13          1.2050     0.1320     0.8080 ca         1 T1Q      -0.105800
     14 C14          2.1360     0.4130    -0.2140 ca         1 T1Q       0.194000
     15 C15          3.4910     0.7110     0.0810 ca         1 T1Q       0.173000
     16 C16          3.8950     0.7300     1.4350 ca         1 T1Q      -0.016000
     17 C17          2.9730     0.4480     2.4590 ca         1 T1Q      -0.164000
     18 C18          1.6400     0.1490     2.1470 ca         1 T1Q       0.215000
     19 F19          0.7750    -0.1280     3.1480 f          1 T1Q      -0.165000
     20 F20          1.7220     0.4000    -1.5060 f          1 T1Q      -0.168000
     21 N21          4.3890     0.9910    -0.9710 nu         1 T1Q      -0.872100
     22 N22         -6.4090    -0.1550    -0.3780 nu         1 T1Q      -0.907100
     23 S23          6.0390     0.8000    -1.0480 s6         1 T1Q       1.172100
     24 C24          6.3260    -0.9170    -0.5980 c3         1 T1Q      -0.336400
     25 O25          6.3690     0.9860    -2.4610 o          1 T1Q      -0.525500
     26 O26          6.6090     1.6820    -0.0280 o          1 T1Q      -0.525500
     27 C27          7.8200    -1.3170    -0.6350 c3         1 T1Q      -0.042400
     28 C28          8.0420    -2.7900    -0.2450 c3         1 T1Q      -0.084100
     29 C29         -7.5740     0.7160    -0.1520 c3         1 T1Q       0.237800
     30 C30         -8.8630     0.0290    -0.6360 c3         1 T1Q      -0.105400
     31 C31        -10.1110     0.9050    -0.4200 c3         1 T1Q       0.168600
     32 O32        -11.2710     0.2120    -0.8890 oh         1 T1Q      -0.660000
     33 H6          -3.2570     2.4820     1.2320 h4         1 T1Q       0.026100
     34 H10         -0.7820     1.7210     1.2330 ha         1 T1Q       0.194000
     35 H11         -1.6010    -3.5880    -1.2940 h1         1 T1Q       0.061033
     36 H11A        -3.1130    -3.4330    -0.3700 h1         1 T1Q       0.061033
     37 H11B        -2.9650    -2.6860    -1.9860 h1         1 T1Q       0.061033
     38 H16          4.9170     0.9690     1.7090 ha         1 T1Q       0.150000
     39 H17          3.2920     0.4620     3.4980 ha         1 T1Q       0.146000
     40 HN21         4.0560     0.8790    -1.9210 hn         1 T1Q       0.497000
     41 HN22        -6.5720    -1.0670    -0.8060 hn         1 T1Q       0.512000
     42 H24          5.9170    -1.0450     0.4090 h1         1 T1Q       0.102200
     43 H24A         5.7460    -1.5180    -1.3060 h1         1 T1Q       0.102200
     44 H27          8.2240    -1.1510    -1.6430 hc         1 T1Q       0.054700
     45 H27A         8.3920    -0.6780     0.0500 hc         1 T1Q       0.054700
     46 H28          7.6790    -2.9800     0.7720 hc         1 T1Q       0.037367
     47 H28A         7.5100    -3.4570    -0.9340 hc         1 T1Q       0.037367
     48 H28B         9.1090    -3.0390    -0.2820 hc         1 T1Q       0.037367
     49 H29         -7.6670     0.9490     0.9180 h1         1 T1Q       0.056700
     50 H29A        -7.4440     1.6650    -0.6920 h1         1 T1Q       0.056700
     51 H30         -8.7710    -0.2060    -1.7040 hc         1 T1Q       0.061200
     52 H30A        -8.9930    -0.9190    -0.1000 hc         1 T1Q       0.061200
     53 H31        -10.2110     1.1360     0.6500 h1         1 T1Q       0.020700
     54 H31A        -9.9880     1.8530    -0.9610 h1         1 T1Q       0.020700
     55 HO32       -12.0410     0.8040    -0.7320 ho         1 T1Q       0.448000
@<TRIPOS>BOND
     1     1     2 ar  
     2     1     6 ar  
     3     2     3 ar  
     4     2    22 1   
     5     3     4 ar  
     6     4     5 ar  
     7     4     7 1   
     8     5     6 ar  
     9     5    10 1   
    10     6    33 1   
    11     7     8 1   
    12     7    11 1   
    13     8     9 1   
    14     8    12 2   
    15     9    10 2   
    16     9    13 1   
    17    10    34 1   
    18    11    35 1   
    19    11    36 1   
    20    11    37 1   
    21    13    14 ar  
    22    13    18 ar  
    23    14    15 ar  
    24    14    20 1   
    25    15    16 ar  
    26    15    21 1   
    27    16    17 ar  
    28    16    38 1   
    29    17    18 ar  
    30    17    39 1   
    31    18    19 1   
    32    21    23 1   
    33    21    40 1   
    34    22    29 1   
    35    22    41 1   
    36    23    24 1   
    37    23    25 2   
    38    23    26 2   
    39    24    27 1   
    40    24    42 1   
    41    24    43 1   
    42    27    28 1   
    43    27    44 1   
    44    27    45 1   
    45    28    46 1   
    46    28    47 1   
    47    28    48 1   
    48    29    30 1   
    49    29    49 1   
    50    29    50 1   
    51    30    31 1   
    52    30    51 1   
    53    30    52 1   
    54    31    32 1   
    55    31    53 1   
    56    31    54 1   
    57    32    55 1   
@<TRIPOS>SUBSTRUCTURE
     1 T1Q         1 TEMP              0 ****  ****    0 ROOT
