@<TRIPOS>MOLECULE
T1Q
   55    57     1     0     0
SMALL
bcc


@<TRIPOS>ATOM
      1 N1          -4.4940     1.2060     0.3440 nb         1 T1Q      -0.786000
      2 C2          -4.4940    -0.0270    -0.2020 ca         1 T1Q       0.959900
      3 N3          -3.4230    -0.8100    -0.3640 nb         1 T1Q      -0.846000
      4 C4          -2.2610    -0.3390     0.0450 ca         1 T1Q       0.651200
      5 C5          -2.1410     0.9360     0.6320 ca         1 T1Q      -0.444400
      6 C6          -3.3300     1.6560     0.7460 ca         1 T1Q       0.540200
      7 N7          -1.1420    -1.1120    -0.1040 n          1 T1Q      -0.427300
      8 C8           0.1160    -0.7060     0.3270 c          1 T1Q       0.722700
      9 C9           0.2220     0.6290     0.9060 cc         1 T1Q      -0.173400
     10 C10         -0.8740     1.4030     1.0570 cd         1 T1Q       0.043800
     11 C11         -1.2260    -2.4410    -0.6970 c3         1 T1Q       0.079300
     12 O12          1.0690    -1.4590     0.2150 o          1 T1Q      -0.612500
     13 C13          1.5640     1.0440     1.3430 ca         1 T1Q      -0.105800
     14 C14          2.6070     1.1660     0.4390 ca         1 T1Q       0.158900
     15 C15          3.9060     1.4800     0.8100 ca         1 T1Q       0.034600
     16 C16          4.1630     1.7160     2.1560 ca         1 T1Q      -0.034000
     17 C17          3.1520     1.6190     3.0960 ca         1 T1Q      -0.182000
     18 C18          1.8800     1.2820     2.6730 ca         1 T1Q       0.179900
     19 F19          0.9090     1.1680     3.5830 f          1 T1Q      -0.129900
     20 F20          2.3460     0.9740    -0.8560 f          1 T1Q      -0.132900
     21 N21          4.9460     1.5490    -0.1440 nu         1 T1Q      -0.678500
     22 N22         -5.6650    -0.5170    -0.6130 nu         1 T1Q      -0.851900
     23 S23          5.9180     0.2080    -0.3500 s6         1 T1Q       1.202900
     24 C24          4.8730    -1.0880    -1.0080 c3         1 T1Q      -0.225600
     25 O25          6.9010     0.5860    -1.3510 o          1 T1Q      -0.596300
     26 O26          6.3580    -0.1960     0.9760 o          1 T1Q      -0.596300
     27 C27          5.6410    -2.3890    -1.1990 c3         1 T1Q      -0.042400
     28 C28          4.7170    -3.4740    -1.7370 c3         1 T1Q      -0.084100
     29 C29         -6.9200     0.2020    -0.5590 c3         1 T1Q       0.237800
     30 C30         -8.0640    -0.7250    -0.9340 c3         1 T1Q      -0.105400
     31 C31         -9.3940     0.0020    -0.8960 c3         1 T1Q       0.145400
     32 O32        -10.4110    -0.9010    -1.2690 oh         1 T1Q      -0.597800
     33 H6          -3.3120     2.6470     1.1900 h4         1 T1Q       0.026100
     34 H10         -0.7990     2.3930     1.4920 ha         1 T1Q       0.144000
     35 H11         -0.5030    -2.5350    -1.5030 h1         1 T1Q       0.061033
     36 H11A        -1.0220    -3.2050     0.0510 h1         1 T1Q       0.061033
     37 H11B        -2.2230    -2.5880    -1.0910 h1         1 T1Q       0.061033
     38 H16          5.1630     1.9830     2.4630 ha         1 T1Q       0.168000
     39 H17          3.3490     1.7990     4.1440 ha         1 T1Q       0.164000
     40 HN21         4.7220     2.0060    -1.0230 hn         1 T1Q       0.441800
     41 HN22        -5.6430    -1.4150    -1.0690 hn         1 T1Q       0.456800
     42 H24          4.0480    -1.2200    -0.3050 h1         1 T1Q       0.102200
     43 H24A         4.4710    -0.7180    -1.9530 h1         1 T1Q       0.102200
     44 H27          6.4700    -2.2330    -1.8910 hc         1 T1Q       0.054700
     45 H27A         6.0690    -2.7080    -0.2470 hc         1 T1Q       0.054700
     46 H28          3.8830    -3.6560    -1.0580 hc         1 T1Q       0.037367
     47 H28A         4.3040    -3.1970    -2.7070 hc         1 T1Q       0.037367
     48 H28B         5.2590    -4.4120    -1.8590 hc         1 T1Q       0.037367
     49 H29         -7.0720     0.5950     0.4480 h1         1 T1Q       0.056700
     50 H29A        -6.8960     1.0620    -1.2360 h1         1 T1Q       0.056700
     51 H30         -7.8980    -1.1260    -1.9390 hc         1 T1Q       0.061200
     52 H30A        -8.0890    -1.5730    -0.2430 hc         1 T1Q       0.061200
     53 H31         -9.5620     0.4020     0.1130 h1         1 T1Q       0.020700
     54 H31A        -9.3560     0.8650    -1.5750 h1         1 T1Q       0.020700
     55 HO32       -11.2510    -0.4370    -1.2330 ho         1 T1Q       0.409000
@<TRIPOS>BOND
     1     1     2 ar  
     2     1     6 ar  
     3     2     3 ar  
     4     2    22 1   
     5     3     4 ar  
     6     4     5 ar  
     7     4     7 1   
     8     5     6 ar  
     9     5    10 1   
    10     6    33 1   
    11     7     8 1   
    12     7    11 1   
    13     8     9 1   
    14     8    12 2   
    15     9    10 2   
    16     9    13 1   
    17    10    34 1   
    18    11    35 1   
    19    11    36 1   
    20    11    37 1   
    21    13    14 ar  
    22    13    18 ar  
    23    14    15 ar  
    24    14    20 1   
    25    15    16 ar  
    26    15    21 1   
    27    16    17 ar  
    28    16    38 1   
    29    17    18 ar  
    30    17    39 1   
    31    18    19 1   
    32    21    23 1   
    33    21    40 1   
    34    22    29 1   
    35    22    41 1   
    36    23    24 1   
    37    23    25 2   
    38    23    26 2   
    39    24    27 1   
    40    24    42 1   
    41    24    43 1   
    42    27    28 1   
    43    27    44 1   
    44    27    45 1   
    45    28    46 1   
    46    28    47 1   
    47    28    48 1   
    48    29    30 1   
    49    29    49 1   
    50    29    50 1   
    51    30    31 1   
    52    30    51 1   
    53    30    52 1   
    54    31    32 1   
    55    31    53 1   
    56    31    54 1   
    57    32    55 1   
@<TRIPOS>SUBSTRUCTURE
     1 T1Q         1 TEMP              0 ****  ****    0 ROOT
