@<TRIPOS>MOLECULE
T1R
   81    85     1     0     0
SMALL
No Charge or Current Charge


@<TRIPOS>ATOM
      1 C4          18.8260    26.5990    14.8530 ca         1 T1R       0.024000
      2 C5          19.7270    25.6940    15.4480 ca         1 T1R      -0.348500
      3 C6          20.9840    26.1480    15.8930 ca         1 T1R       0.024000
      4 C7          21.3320    27.5020    15.7580 ca         1 T1R      -0.198500
      5 C13         19.1630    23.7450    19.7130 c3         1 T1R      -0.063700
      6 C15         20.2520    24.1460    20.7350 c3         1 T1R      -0.091600
      7 C17         16.1460    23.9690    18.0330 c3         1 T1R       0.149300
      8 C21         15.0210    20.5120    18.4160 c          1 T1R       0.637100
      9 C24         13.7900    18.6440    19.3860 c6         1 T1R       0.171300
     10 C19         15.6990    22.6610    17.3090 c3         1 T1R       0.141700
     11 C12         19.5740    24.1650    18.2760 c3         1 T1R       0.213800
     12 C14         18.8500    22.2310    19.8180 c3         1 T1R      -0.091600
     13 C16         17.3240    24.7010    17.3160 c3         1 T1R       0.189800
     14 C3          19.1800    27.9510    14.7210 ca         1 T1R      -0.198500
     15 C2          20.4260    28.4100    15.1710 ca         1 T1R       0.197100
     16 O39         20.7130    29.7510    15.0130 os         1 T1R      -0.334100
     17 C40         21.9620    30.3240    15.4410 c3         1 T1R       0.145900
     18 S8          19.2820    23.9610    15.6270 sy         1 T1R       1.174600
     19 O9          18.2070    23.6220    14.6890 o          1 T1R      -0.535500
     20 O10         20.4980    23.1430    15.6850 o          1 T1R      -0.535500
     21 N11         18.5860    23.9090    17.1900 n3         1 T1R      -0.749500
     22 O18         15.0240    24.8660    18.1930 oh         1 T1R      -0.659000
     23 N20         14.8560    21.8470    18.1930 ns         1 T1R      -0.497900
     24 O22         15.9480    19.8350    18.0010 o          1 T1R      -0.549000
     25 O23         13.9750    20.0600    19.1580 os         1 T1R      -0.439100
     26 C32         14.9880    22.8750    15.9430 c3         1 T1R      -0.044100
     27 C33         13.2620    21.1610    15.1760 ca         1 T1R      -0.099000
     28 C34         12.9220    19.9430    14.5610 ca         1 T1R      -0.116500
     29 C35         13.9270    19.1200    14.0280 ca         1 T1R      -0.116000
     30 C36         15.2720    19.5170    14.1050 ca         1 T1R      -0.116500
     31 C37         15.6130    20.7360    14.7170 ca         1 T1R      -0.099000
     32 C38         14.6100    21.5640    15.2590 ca         1 T1R      -0.081300
     33 C25         12.7620    18.3810    20.5420 c5         1 T1R       0.169300
     34 C26         12.0120    17.0280    20.3840 c5         1 T1R      -0.104400
     35 C27         11.0130    17.4420    19.2570 c5         1 T1R      -0.131700
     36 O28         10.2160    19.5700    18.6640 os         1 T1R      -0.447000
     37 C29         11.1740    19.2820    17.6250 c5         1 T1R       0.153600
     38 C30         11.7900    17.8790    17.9480 c5         1 T1R      -0.087700
     39 C31         13.3400    17.9190    18.0810 c6         1 T1R      -0.094400
     40 O41         11.6770    19.3570    20.5250 os         1 T1R      -0.456000
     41 C42         10.5350    18.7920    19.8270 c5         1 T1R       0.373300
     42 H1          17.8540    26.2630    14.4930 ha         1 T1R       0.133500
     43 H2          21.6940    25.4570    16.3470 ha         1 T1R       0.133500
     44 H3          22.3050    27.8260    16.1140 ha         1 T1R       0.128500
     45 H4          18.2670    24.3070    19.9950 hc         1 T1R       0.042700
     46 H5          19.9390    23.8940    21.7550 hc         1 T1R       0.040367
     47 H6          21.1960    23.6270    20.5270 hc         1 T1R       0.040367
     48 H7          20.4400    25.2260    20.6980 hc         1 T1R       0.040367
     49 H8          16.4920    23.6670    19.0260 h1         1 T1R       0.053700
     50 H9          14.7580    18.2220    19.6960 h1         1 T1R       0.067700
     51 H10         16.6150    22.0900    17.1080 h1         1 T1R       0.093700
     52 H11         20.5100    23.6310    18.0680 h1         1 T1R       0.045700
     53 H12         19.8270    25.2340    18.2920 h1         1 T1R       0.045700
     54 H13         18.5110    21.9750    20.8290 hc         1 T1R       0.040367
     55 H14         18.0640    21.9360    19.1150 hc         1 T1R       0.040367
     56 H15         19.7430    21.6340    19.5940 hc         1 T1R       0.040367
     57 H16         17.5300    25.6400    17.8480 h1         1 T1R       0.056200
     58 H17         16.9470    25.0040    16.3320 h1         1 T1R       0.056200
     59 H18         18.4830    28.6490    14.2650 ha         1 T1R       0.128500
     60 H19         21.9810    31.3990    15.2220 h1         1 T1R       0.047033
     61 H20         22.1010    30.1940    16.5210 h1         1 T1R       0.047033
     62 H21         22.8050    29.8560    14.9170 h1         1 T1R       0.047033
     63 H22         15.2550    25.5050    18.9030 ho         1 T1R       0.443000
     64 H23         14.0370    22.2710    18.6090 hn         1 T1R       0.334500
     65 H24         15.6350    23.4550    15.2780 hc         1 T1R       0.066200
     66 H25         14.0920    23.4890    16.0970 hc         1 T1R       0.066200
     67 H26         12.4770    21.7890    15.5920 ha         1 T1R       0.122000
     68 H27         11.8800    19.6380    14.4970 ha         1 T1R       0.109000
     69 H28         13.6640    18.1760    13.5540 ha         1 T1R       0.106000
     70 H29         16.0520    18.8810    13.6920 ha         1 T1R       0.109000
     71 H30         16.6570    21.0350    14.7740 ha         1 T1R       0.122000
     72 H31         13.2930    18.4510    21.5010 h1         1 T1R       0.082700
     73 H32         11.4920    16.7490    21.3090 hc         1 T1R       0.063200
     74 H33         12.6640    16.1900    20.1150 hc         1 T1R       0.063200
     75 H34         10.1970    16.7320    19.0810 hc         1 T1R       0.078700
     76 H35         11.9320    20.0750    17.6130 h1         1 T1R       0.053200
     77 H36         10.6600    19.2930    16.6550 h1         1 T1R       0.053200
     78 H37         11.5880    17.1800    17.1280 hc         1 T1R       0.061700
     79 H38         13.7240    16.8890    18.0960 hc         1 T1R       0.062700
     80 H39         13.7840    18.3830    17.1910 hc         1 T1R       0.062700
     81 H40          9.6740    18.6920    20.5030 h2         1 T1R       0.095700
@<TRIPOS>BOND
     1     1     2 ar  
     2     1    14 ar  
     3     1    42 1   
     4     2     3 ar  
     5     2    18 1   
     6     3     4 ar  
     7     3    43 1   
     8     4    15 ar  
     9     4    44 1   
    10     5     6 1   
    11     5    11 1   
    12     5    12 1   
    13     5    45 1   
    14     6    46 1   
    15     6    47 1   
    16     6    48 1   
    17     7    10 1   
    18     7    13 1   
    19     7    22 1   
    20     7    49 1   
    21     8    23 1   
    22     8    24 2   
    23     8    25 1   
    24     9    25 1   
    25     9    33 1   
    26     9    39 1   
    27     9    50 1   
    28    10    23 1   
    29    10    26 1   
    30    10    51 1   
    31    11    21 1   
    32    11    52 1   
    33    11    53 1   
    34    12    54 1   
    35    12    55 1   
    36    12    56 1   
    37    13    21 1   
    38    13    57 1   
    39    13    58 1   
    40    14    15 ar  
    41    14    59 1   
    42    15    16 1   
    43    16    17 1   
    44    17    60 1   
    45    17    61 1   
    46    17    62 1   
    47    18    19 2   
    48    18    20 2   
    49    18    21 1   
    50    22    63 1   
    51    23    64 1   
    52    26    32 1   
    53    26    65 1   
    54    26    66 1   
    55    27    28 ar  
    56    27    32 ar  
    57    27    67 1   
    58    28    29 ar  
    59    28    68 1   
    60    29    30 ar  
    61    29    69 1   
    62    30    31 ar  
    63    30    70 1   
    64    31    32 ar  
    65    31    71 1   
    66    33    34 1   
    67    33    40 1   
    68    33    72 1   
    69    34    35 1   
    70    34    73 1   
    71    34    74 1   
    72    35    38 1   
    73    35    41 1   
    74    35    75 1   
    75    36    37 1   
    76    36    41 1   
    77    37    38 1   
    78    37    76 1   
    79    37    77 1   
    80    38    39 1   
    81    38    78 1   
    82    39    79 1   
    83    39    80 1   
    84    40    41 1   
    85    41    81 1   
@<TRIPOS>SUBSTRUCTURE
     1 T1R         1 TEMP              0 ****  ****    0 ROOT
