@<TRIPOS>MOLECULE
T1R
   81    85     1     0     0
SMALL
bcc


@<TRIPOS>ATOM
      1 C4          19.0580    26.5610    15.0290 ca         1 T1R       0.006000
      2 C5          19.6710    25.4800    15.6620 ca         1 T1R      -0.348500
      3 C6          21.0290    25.5110    15.9340 ca         1 T1R       0.006000
      4 C7          21.7860    26.6210    15.5870 ca         1 T1R      -0.216500
      5 C13         18.5230    24.1750    20.0130 c3         1 T1R      -0.063700
      6 C15         19.5110    24.6620    21.0680 c3         1 T1R      -0.091600
      7 C17         15.5660    24.2380    18.1700 c3         1 T1R       0.126100
      8 C21         14.8930    20.7930    18.3350 c          1 T1R       0.753100
      9 C24         14.1670    18.7120    19.2050 c6         1 T1R       0.148100
     10 C19         15.2350    23.0060    17.3270 c3         1 T1R       0.141700
     11 C12         18.8750    24.8360    18.6810 c3         1 T1R       0.213800
     12 C14         18.5290    22.6560    19.9180 c3         1 T1R      -0.091600
     13 C16         16.6590    25.1370    17.5790 c3         1 T1R       0.189800
     14 C3          19.8050    27.6650    14.6830 ca         1 T1R      -0.216500
     15 C2          21.1770    27.7080    14.9610 ca         1 T1R       0.197100
     16 O39         21.8150    28.8220    14.5910 os         1 T1R      -0.310900
     17 C40         23.2070    28.9280    14.8300 c3         1 T1R       0.122700
     18 S8          18.6890    24.0940    16.1490 sy         1 T1R       1.316200
     19 O9          17.6290    23.9360    15.1620 o          1 T1R      -0.606300
     20 O10         19.5840    22.9790    16.4100 o          1 T1R      -0.606300
     21 N11         17.9710    24.4960    17.5800 n3         1 T1R      -0.749500
     22 O18         14.3790    24.9750    18.3490 oh         1 T1R      -0.596800
     23 N20         14.4910    22.0600    18.1290 ns         1 T1R      -0.564900
     24 O22         15.9590    20.3250    17.9870 o          1 T1R      -0.598000
     25 O23         13.9560    20.1080    19.0040 os         1 T1R      -0.415900
     26 C32         14.4630    23.3150    16.0350 c3         1 T1R      -0.044100
     27 C33         12.9310    21.4970    15.2030 ca         1 T1R      -0.117000
     28 C34         12.6900    20.3280    14.4900 ca         1 T1R      -0.134500
     29 C35         13.7230    19.7030    13.8070 ca         1 T1R      -0.134000
     30 C36         14.9960    20.2590    13.8370 ca         1 T1R      -0.134500
     31 C37         15.2310    21.4280    14.5460 ca         1 T1R      -0.117000
     32 C38         14.2010    22.0650    15.2390 ca         1 T1R      -0.081300
     33 C25         13.3040    18.3010    20.4070 c5         1 T1R       0.146100
     34 C26         12.9680    16.8200    20.2850 c5         1 T1R      -0.104400
     35 C27         11.8670    16.9280    19.2400 c5         1 T1R      -0.131700
     36 O28         10.5830    18.7940    18.6050 os         1 T1R      -0.400600
     37 C29         11.4050    18.5300    17.4750 c5         1 T1R       0.130400
     38 C30         12.3890    17.4150    17.8690 c5         1 T1R      -0.087700
     39 C31         13.8430    17.8830    17.9570 c6         1 T1R      -0.094400
     40 O41         12.0350    18.9390    20.4120 os         1 T1R      -0.409600
     41 C42         11.0880    18.1470    19.7190 c5         1 T1R       0.326900
     42 H1          18.0010    26.5460    14.7960 ha         1 T1R       0.151500
     43 H2          21.5180    24.6740    16.4130 ha         1 T1R       0.151500
     44 H3          22.8440    26.6150    15.8090 ha         1 T1R       0.146500
     45 H4          17.5260    24.5080    20.3210 hc         1 T1R       0.042700
     46 H5          19.2700    24.2450    22.0460 hc         1 T1R       0.040367
     47 H6          20.5310    24.3590    20.8210 hc         1 T1R       0.040367
     48 H7          19.4990    25.7500    21.1590 hc         1 T1R       0.040367
     49 H8          15.9300    23.8570    19.1330 h1         1 T1R       0.053700
     50 H9          15.2110    18.5370    19.4760 h1         1 T1R       0.067700
     51 H10         16.1770    22.5250    17.0660 h1         1 T1R       0.093700
     52 H11         19.8910    24.5340    18.4230 h1         1 T1R       0.045700
     53 H12         18.8940    25.9250    18.8020 h1         1 T1R       0.045700
     54 H13         18.2610    22.2100    20.8770 hc         1 T1R       0.040367
     55 H14         17.8230    22.2850    19.1740 hc         1 T1R       0.040367
     56 H15         19.5200    22.2860    19.6470 hc         1 T1R       0.040367
     57 H16         16.7270    26.0440    18.1890 h1         1 T1R       0.056200
     58 H17         16.3780    25.4680    16.5780 h1         1 T1R       0.056200
     59 H18         19.3350    28.5050    14.1870 ha         1 T1R       0.146500
     60 H19         23.5100    29.9000    14.4510 h1         1 T1R       0.047033
     61 H20         23.4410    28.8760    15.8960 h1         1 T1R       0.047033
     62 H21         23.7690    28.1520    14.3040 h1         1 T1R       0.047033
     63 H22         14.5130    25.6100    19.0610 ho         1 T1R       0.404000
     64 H23         13.5590    22.3170    18.4160 hn         1 T1R       0.334500
     65 H24         15.0340    24.0250    15.4370 hc         1 T1R       0.066200
     66 H25         13.5150    23.7960    16.2810 hc         1 T1R       0.066200
     67 H26         12.1180    21.9750    15.7360 ha         1 T1R       0.140000
     68 H27         11.6940    19.9050    14.4720 ha         1 T1R       0.127000
     69 H28         13.5380    18.7920    13.2530 ha         1 T1R       0.124000
     70 H29         15.8090    19.7820    13.3050 ha         1 T1R       0.127000
     71 H30         16.2270    21.8550    14.5620 ha         1 T1R       0.140000
     72 H31         13.8110    18.5700    21.3360 h1         1 T1R       0.082700
     73 H32         12.5820    16.4260    21.2270 hc         1 T1R       0.063200
     74 H33         13.8140    16.2000    19.9880 hc         1 T1R       0.063200
     75 H34         11.2410    16.0400    19.1540 hc         1 T1R       0.078700
     76 H35         11.9300    19.4380    17.1640 h1         1 T1R       0.053200
     77 H36         10.7590    18.2280    16.6470 h1         1 T1R       0.053200
     78 H37         12.3410    16.6070    17.1380 hc         1 T1R       0.061700
     79 H38         14.4850    17.0010    17.9790 hc         1 T1R       0.062700
     80 H39         14.1220    18.4200    17.0480 hc         1 T1R       0.062700
     81 H40         10.2480    17.9410    20.3890 h2         1 T1R       0.095700
@<TRIPOS>BOND
     1     1     2 ar  
     2     1    14 ar  
     3     1    42 1   
     4     2     3 ar  
     5     2    18 1   
     6     3     4 ar  
     7     3    43 1   
     8     4    15 ar  
     9     4    44 1   
    10     5     6 1   
    11     5    11 1   
    12     5    12 1   
    13     5    45 1   
    14     6    46 1   
    15     6    47 1   
    16     6    48 1   
    17     7    10 1   
    18     7    13 1   
    19     7    22 1   
    20     7    49 1   
    21     8    23 1   
    22     8    24 2   
    23     8    25 1   
    24     9    25 1   
    25     9    33 1   
    26     9    39 1   
    27     9    50 1   
    28    10    23 1   
    29    10    26 1   
    30    10    51 1   
    31    11    21 1   
    32    11    52 1   
    33    11    53 1   
    34    12    54 1   
    35    12    55 1   
    36    12    56 1   
    37    13    21 1   
    38    13    57 1   
    39    13    58 1   
    40    14    15 ar  
    41    14    59 1   
    42    15    16 1   
    43    16    17 1   
    44    17    60 1   
    45    17    61 1   
    46    17    62 1   
    47    18    19 2   
    48    18    20 2   
    49    18    21 1   
    50    22    63 1   
    51    23    64 1   
    52    26    32 1   
    53    26    65 1   
    54    26    66 1   
    55    27    28 ar  
    56    27    32 ar  
    57    27    67 1   
    58    28    29 ar  
    59    28    68 1   
    60    29    30 ar  
    61    29    69 1   
    62    30    31 ar  
    63    30    70 1   
    64    31    32 ar  
    65    31    71 1   
    66    33    34 1   
    67    33    40 1   
    68    33    72 1   
    69    34    35 1   
    70    34    73 1   
    71    34    74 1   
    72    35    38 1   
    73    35    41 1   
    74    35    75 1   
    75    36    37 1   
    76    36    41 1   
    77    37    38 1   
    78    37    76 1   
    79    37    77 1   
    80    38    39 1   
    81    38    78 1   
    82    39    79 1   
    83    39    80 1   
    84    40    41 1   
    85    41    81 1   
@<TRIPOS>SUBSTRUCTURE
     1 T1R         1 TEMP              0 ****  ****    0 ROOT
