@<TRIPOS>MOLECULE
T1S
   28    29     1     0     0
SMALL
abcg2


@<TRIPOS>ATOM
      1 C10          4.2120    -0.4180    -0.1550 c6         1 T1S       0.153100
      2 C13          1.7610     0.9200    -0.2960 c6         1 T1S       0.126800
      3 C02         -2.9560    -0.3000     0.4680 ca         1 T1S       0.119000
      4 C03         -3.1030    -0.9620    -0.7390 ca         1 T1S      -0.102000
      5 C04         -1.9760    -1.5220    -1.3260 ca         1 T1S      -0.107000
      6 C05         -0.7360    -1.4240    -0.7150 ca         1 T1S      -0.089000
      7 C06         -0.5990    -0.7560     0.5000 ca         1 T1S      -0.078300
      8 C07          0.7400    -0.6790     1.1890 c3         1 T1S       0.214100
      9 C09          3.1210    -0.6380     0.8760 c6         1 T1S       0.126800
     10 C12          2.8860     1.1100    -1.2950 c6         1 T1S       0.153100
     11 C14         -1.7210    -0.1870     1.0890 ca         1 T1S      -0.104000
     12 N08          1.8220    -0.4170     0.2680 n3         1 T1S      -0.721600
     13 O11          4.1480     0.8780    -0.7080 os         1 T1S      -0.449000
     14 H101         5.1950    -0.5310     0.3040 h1         1 T1S       0.050950
     15 H102         4.1160    -1.1760    -0.9460 h1         1 T1S       0.050950
     16 H131         1.8270     1.6930     0.4900 h1         1 T1S       0.043450
     17 H132         0.8080     1.0620    -0.8100 h1         1 T1S       0.043450
     18 H031        -4.0710    -1.0390    -1.2150 ha         1 T1S       0.129000
     19 H041        -2.0740    -2.0410    -2.2710 ha         1 T1S       0.118000
     20 H051         0.1380    -1.8570    -1.1850 ha         1 T1S       0.132000
     21 H071         0.6920     0.0670     2.0010 h1         1 T1S       0.041700
     22 H072         0.9370    -1.6410     1.6720 h1         1 T1S       0.041700
     23 H091         3.1810    -1.6660     1.2420 h1         1 T1S       0.043450
     24 H092         3.2900     0.0280     1.7400 h1         1 T1S       0.043450
     25 H121         2.7300     0.4330    -2.1470 h1         1 T1S       0.050950
     26 H122         2.8840     2.1340    -1.6730 h1         1 T1S       0.050950
     27 H141        -1.6310     0.3480     2.0260 ha         1 T1S       0.126000
     28 CL01        -4.3470     0.4190     1.2200 cl         1 T1S      -0.209000
@<TRIPOS>BOND
     1     1     9 1   
     2     1    13 1   
     3     1    14 1   
     4     1    15 1   
     5     2    10 1   
     6     2    12 1   
     7     2    16 1   
     8     2    17 1   
     9     3     4 ar  
    10     3    11 ar  
    11     3    28 1   
    12     4     5 ar  
    13     4    18 1   
    14     5     6 ar  
    15     5    19 1   
    16     6     7 ar  
    17     6    20 1   
    18     7     8 1   
    19     7    11 ar  
    20     8    12 1   
    21     8    21 1   
    22     8    22 1   
    23     9    12 1   
    24     9    23 1   
    25     9    24 1   
    26    10    13 1   
    27    10    25 1   
    28    10    26 1   
    29    11    27 1   
@<TRIPOS>SUBSTRUCTURE
     1 T1S         1 TEMP              0 ****  ****    0 ROOT
