@<TRIPOS>MOLECULE
T1S
   28    29     1     0     0
SMALL
No Charge or Current Charge


@<TRIPOS>ATOM
      1 C10          4.3360    -0.2310    -0.1430 c6         1 T1S       0.153100
      2 C13          1.6790     0.9090    -0.2340 c6         1 T1S       0.126800
      3 C02         -2.8530     0.0140     0.2840 ca         1 T1S       0.119000
      4 C03         -3.1550    -0.8860    -0.7510 ca         1 T1S      -0.102000
      5 C04         -2.1880    -1.8130    -1.1760 ca         1 T1S      -0.107000
      6 C05         -0.9210    -1.8370    -0.5650 ca         1 T1S      -0.089000
      7 C06         -0.6140    -0.9360     0.4740 ca         1 T1S      -0.078300
      8 C07          0.7640    -0.9650     1.1300 c3         1 T1S       0.214100
      9 C09          3.2100    -0.7040     0.8240 c6         1 T1S       0.126800
     10 C12          2.8390     1.3500    -1.1770 c6         1 T1S       0.153100
     11 C14         -1.5890    -0.0090     0.8950 ca         1 T1S      -0.104000
     12 N08          1.8500    -0.5040     0.2330 n3         1 T1S      -0.721600
     13 O11          4.1190     1.1470    -0.5310 os         1 T1S      -0.449000
     14 H101         5.3140    -0.3170     0.3500 h1         1 T1S       0.050950
     15 H102         4.3490    -0.8630    -1.0430 h1         1 T1S       0.050950
     16 H131         1.6460     1.5940     0.6260 h1         1 T1S       0.043450
     17 H132         0.7290     1.0270    -0.7750 h1         1 T1S       0.043450
     18 H031        -4.1350    -0.8650    -1.2210 ha         1 T1S       0.129000
     19 H041        -2.4180    -2.5110    -1.9790 ha         1 T1S       0.118000
     20 H051        -0.1730    -2.5520    -0.9010 ha         1 T1S       0.132000
     21 H071         0.7440    -0.3500     2.0410 h1         1 T1S       0.041700
     22 H072         0.9620    -1.9970     1.4500 h1         1 T1S       0.041700
     23 H091         3.3710    -1.7660     1.0600 h1         1 T1S       0.043450
     24 H092         3.3010    -0.1470     1.7680 h1         1 T1S       0.043450
     25 H121         2.8060     0.7670    -2.1090 h1         1 T1S       0.050950
     26 H122         2.7290     2.4130    -1.4350 h1         1 T1S       0.050950
     27 H141        -1.3670     0.6950     1.6930 ha         1 T1S       0.126000
     28 Cl01        -4.0620     1.1760     0.8150 cl         1 T1S      -0.209000
@<TRIPOS>BOND
     1     1     9 1   
     2     1    13 1   
     3     1    14 1   
     4     1    15 1   
     5     2    10 1   
     6     2    12 1   
     7     2    16 1   
     8     2    17 1   
     9     3     4 ar  
    10     3    11 ar  
    11     3    28 1   
    12     4     5 ar  
    13     4    18 1   
    14     5     6 ar  
    15     5    19 1   
    16     6     7 ar  
    17     6    20 1   
    18     7     8 1   
    19     7    11 ar  
    20     8    12 1   
    21     8    21 1   
    22     8    22 1   
    23     9    12 1   
    24     9    23 1   
    25     9    24 1   
    26    10    13 1   
    27    10    25 1   
    28    10    26 1   
    29    11    27 1   
@<TRIPOS>SUBSTRUCTURE
     1 T1S         1 TEMP              0 ****  ****    0 ROOT
