@<TRIPOS>MOLECULE
T1T
   39    43     1     0     0
SMALL
abcg2


@<TRIPOS>ATOM
      1 FAO         27.8120   -19.2380    31.7300 f          1 T1T      -0.104333
      2 CAN         27.0890   -19.2620    32.8720 c3         1 T1T       0.375300
      3 FAP         27.0990   -18.0200    33.3820 f          1 T1T      -0.104333
      4 FAQ         27.7680   -20.0550    33.7330 f          1 T1T      -0.104333
      5 CAM         25.7010   -19.7450    32.6370 cc         1 T1T      -0.252300
      6 NAL         25.4670   -20.9000    31.9690 na         1 T1T       0.016800
      7 NAK         24.1610   -21.1540    31.8350 nc         1 T1T      -0.483800
      8 CAJ         23.5470   -20.1360    32.4280 cd         1 T1T       0.262900
      9 CAI         24.4670   -19.2070    32.9620 cd         1 T1T      -0.178500
     10 CAH         24.1170   -17.9460    33.6530 ca         1 T1T       0.431500
     11 NAR         23.5200   -17.0370    32.9040 nb         1 T1T      -0.643000
     12 CAS         23.1120   -15.8750    33.4610 ca         1 T1T       0.246000
     13 CAT         22.4740   -14.9420    32.5800 ca         1 T1T      -0.046000
     14 CAU         22.0090   -13.7410    33.0160 ca         1 T1T      -0.111000
     15 CAV         22.1630   -13.4520    34.3910 ca         1 T1T      -0.043200
     16 NAW         21.7440   -12.3740    35.0930 na         1 T1T      -0.046400
     17 NAX         22.0290   -12.4790    36.4060 nc         1 T1T      -0.525100
     18 CAY         22.6520   -13.6380    36.5540 cd         1 T1T       0.362800
     19 CAZ         22.7860   -14.3190    35.3100 ca         1 T1T      -0.224900
     20 CBA         23.3130   -15.5720    34.8430 ca         1 T1T       0.016000
     21 CAE         24.0010   -16.5350    35.6140 ca         1 T1T      -0.048300
     22 CAF         24.3640   -17.7430    35.0290 ca         1 T1T      -0.073300
     23 CAG         24.9590   -18.7980    35.9020 c6         1 T1T       0.030200
     24 SAB         26.4870   -18.2800    36.8040 s4         1 T1T       0.153400
     25 OAA         26.4420   -19.0320    38.1090 o          1 T1T      -0.501000
     26 CAC         25.9540   -16.5660    37.1490 c6         1 T1T      -0.025100
     27 CAD         24.4480   -16.3180    37.0320 c6         1 T1T      -0.010100
     28 H1          26.1480   -21.5370    31.5810 hn         1 T1T       0.391000
     29 H2          22.4700   -20.0870    32.4660 h4         1 T1T       0.054100
     30 H3          22.3750   -15.2360    31.5440 ha         1 T1T       0.137000
     31 H4          21.5270   -13.0370    32.3510 ha         1 T1T       0.127000
     32 H5          21.2480   -11.5680    34.7470 hn         1 T1T       0.379000
     33 H6          22.9550   -13.9340    37.5440 h4         1 T1T       0.051800
     34 H7          24.2840   -19.0510    36.7240 h1         1 T1T       0.093700
     35 H8          25.2110   -19.7100    35.3700 h1         1 T1T       0.093700
     36 H10         26.3210   -16.3810    38.1590 h1         1 T1T       0.087200
     37 H11         26.5040   -15.9300    36.4550 h1         1 T1T       0.087200
     38 H12         24.2610   -15.3040    37.3620 hc         1 T1T       0.064700
     39 H13         23.9070   -16.9810    37.7140 hc         1 T1T       0.064700
@<TRIPOS>BOND
     1     1     2 1   
     2     2     3 1   
     3     2     4 1   
     4     2     5 1   
     5     5     6 1   
     6     5     9 2   
     7     6     7 1   
     8     6    28 1   
     9     7     8 2   
    10     8     9 1   
    11     8    29 1   
    12     9    10 1   
    13    10    11 ar  
    14    10    22 ar  
    15    11    12 ar  
    16    12    13 ar  
    17    12    20 ar  
    18    13    14 ar  
    19    13    30 1   
    20    14    15 ar  
    21    14    31 1   
    22    15    16 1   
    23    15    19 ar  
    24    16    17 1   
    25    16    32 1   
    26    17    18 2   
    27    18    19 1   
    28    18    33 1   
    29    19    20 ar  
    30    20    21 ar  
    31    21    22 ar  
    32    21    27 1   
    33    22    23 1   
    34    23    24 1   
    35    23    34 1   
    36    23    35 1   
    37    24    25 2   
    38    24    26 1   
    39    26    27 1   
    40    26    36 1   
    41    26    37 1   
    42    27    38 1   
    43    27    39 1   
@<TRIPOS>SUBSTRUCTURE
     1 T1T         1 TEMP              0 ****  ****    0 ROOT
