@<TRIPOS>MOLECULE
T1T
   39    43     1     0     0
SMALL
No Charge or Current Charge


@<TRIPOS>ATOM
      1 FAO         27.9380   -19.4200    32.0480 f          1 T1T      -0.104333
      2 CAN         27.0870   -19.2890    33.0910 c3         1 T1T       0.375300
      3 FAP         27.1120   -17.9880    33.4560 f          1 T1T      -0.104333
      4 FAQ         27.5990   -20.0080    34.1140 f          1 T1T      -0.104333
      5 CAM         25.6940   -19.7600    32.7280 cc         1 T1T      -0.252300
      6 NAL         25.4260   -20.9160    31.9880 na         1 T1T       0.016800
      7 NAK         24.0840   -21.0950    31.7000 nc         1 T1T      -0.483800
      8 CAJ         23.5210   -20.0460    32.2680 cd         1 T1T       0.262900
      9 CAI         24.4460   -19.2070    32.9220 cd         1 T1T      -0.178500
     10 CAH         24.0820   -17.9730    33.6340 ca         1 T1T       0.431500
     11 NAR         23.4830   -17.0510    32.8580 nb         1 T1T      -0.643000
     12 CAS         23.0990   -15.8770    33.4010 ca         1 T1T       0.246000
     13 CAT         22.4390   -14.9490    32.5580 ca         1 T1T      -0.046000
     14 CAU         21.9600   -13.7230    33.0500 ca         1 T1T      -0.111000
     15 CAV         22.1310   -13.4620    34.4080 ca         1 T1T      -0.043200
     16 NAW         21.6650   -12.3840    35.1320 na         1 T1T      -0.046400
     17 NAX         21.9310   -12.5640    36.4950 nc         1 T1T      -0.525100
     18 CAY         22.5840   -13.7350    36.5630 cd         1 T1T       0.362800
     19 CAZ         22.7640   -14.3330    35.2470 ca         1 T1T      -0.224900
     20 CBA         23.3230   -15.5580    34.7780 ca         1 T1T       0.016000
     21 CAE         24.0630   -16.4880    35.5690 ca         1 T1T      -0.048300
     22 CAF         24.3970   -17.7370    34.9920 ca         1 T1T      -0.073300
     23 CAG         24.9340   -18.8660    35.8890 c6         1 T1T       0.030200
     24 SAB         26.5210   -18.3350    36.7110 s4         1 T1T       0.153400
     25 OAA         26.6180   -19.1000    38.0120 o          1 T1T      -0.501000
     26 CAC         26.0850   -16.5740    37.1320 c6         1 T1T      -0.025100
     27 CAD         24.5940   -16.1960    36.9840 c6         1 T1T      -0.010100
     28 H1          26.1220   -21.5850    31.6550 hn         1 T1T       0.391000
     29 H2          22.4470   -19.9200    32.1990 h4         1 T1T       0.054100
     30 H3          22.2880   -15.1970    31.5110 ha         1 T1T       0.137000
     31 H4          21.4400   -13.0240    32.3990 ha         1 T1T       0.127000
     32 H5          21.1720   -11.5680    34.7700 hn         1 T1T       0.379000
     33 H6          22.8060   -14.1160    37.5500 h4         1 T1T       0.051800
     34 H7          24.2200   -19.0860    36.6930 h1         1 T1T       0.093700
     35 H8          25.1450   -19.7950    35.3440 h1         1 T1T       0.093700
     36 H10         26.4330   -16.4000    38.1590 h1         1 T1T       0.087200
     37 H11         26.6910   -15.9550    36.4550 h1         1 T1T       0.087200
     38 H12         24.5670   -15.1300    37.2120 hc         1 T1T       0.064700
     39 H13         23.9860   -16.7120    37.7390 hc         1 T1T       0.064700
@<TRIPOS>BOND
     1     1     2 1   
     2     2     3 1   
     3     2     4 1   
     4     2     5 1   
     5     5     6 1   
     6     5     9 2   
     7     6     7 1   
     8     6    28 1   
     9     7     8 2   
    10     8     9 1   
    11     8    29 1   
    12     9    10 1   
    13    10    11 ar  
    14    10    22 ar  
    15    11    12 ar  
    16    12    13 ar  
    17    12    20 ar  
    18    13    14 ar  
    19    13    30 1   
    20    14    15 ar  
    21    14    31 1   
    22    15    16 1   
    23    15    19 ar  
    24    16    17 1   
    25    16    32 1   
    26    17    18 2   
    27    18    19 1   
    28    18    33 1   
    29    19    20 ar  
    30    20    21 ar  
    31    21    22 ar  
    32    21    27 1   
    33    22    23 1   
    34    23    24 1   
    35    23    34 1   
    36    23    35 1   
    37    24    25 2   
    38    24    26 1   
    39    26    27 1   
    40    26    36 1   
    41    26    37 1   
    42    27    38 1   
    43    27    39 1   
@<TRIPOS>SUBSTRUCTURE
     1 T1T         1 TEMP              0 ****  ****    0 ROOT
