@<TRIPOS>MOLECULE
T1U
   22    23     1     0     0
SMALL
abcg2


@<TRIPOS>ATOM
      1 N1           1.1070    -0.7320   -53.7910 nc         1 T1U      -0.567100
      2 C4          -0.0040    -2.5330   -52.4100 ca         1 T1U      -0.047000
      3 C5           0.2600    -3.5250   -51.4760 ca         1 T1U      -0.136000
      4 C6           1.5650    -3.7650   -51.0100 ca         1 T1U      -0.094000
      5 C7           2.6470    -3.0210   -51.4630 ca         1 T1U      -0.115000
      6 C8           2.3750    -2.0280   -52.4010 ca         1 T1U      -0.075200
      7 N            3.1880    -1.1250   -53.0560 na         1 T1U      -0.176600
      8 C            4.6250    -1.0130   -52.8830 c3         1 T1U       0.073900
      9 O            3.3690     1.7820   -53.9060 oh         1 T1U      -0.659000
     10 C1           2.3730    -0.3760   -53.8680 cd         1 T1U       0.416800
     11 C2           2.8840     0.7210   -54.7370 c3         1 T1U       0.144300
     12 C3           1.0710    -1.7740   -52.8780 ca         1 T1U       0.069400
     13 H1          -1.0090    -2.3480   -52.7670 ha         1 T1U       0.128000
     14 H2          -0.5540    -4.1290   -51.0960 ha         1 T1U       0.113000
     15 H3           1.7290    -4.5480   -50.2800 ha         1 T1U       0.111000
     16 H4           3.6500    -3.2070   -51.1020 ha         1 T1U       0.116000
     17 H5           4.8610    -0.6000   -51.9010 h1         1 T1U       0.051033
     18 H6           5.0810    -1.9990   -52.9750 h1         1 T1U       0.051033
     19 H7           5.0340    -0.3600   -53.6470 h1         1 T1U       0.051033
     20 H8           3.8730     2.3890   -54.4620 ho         1 T1U       0.446000
     21 H9           2.0570     1.0570   -55.3670 h1         1 T1U       0.049200
     22 H10          3.6840     0.3490   -55.3850 h1         1 T1U       0.049200
@<TRIPOS>BOND
     1     1    10 2   
     2     1    12 1   
     3     2     3 ar  
     4     2    12 ar  
     5     2    13 1   
     6     3     4 ar  
     7     3    14 1   
     8     4     5 ar  
     9     4    15 1   
    10     5     6 ar  
    11     5    16 1   
    12     6     7 1   
    13     6    12 ar  
    14     7     8 1   
    15     7    10 1   
    16     8    17 1   
    17     8    18 1   
    18     8    19 1   
    19     9    11 1   
    20     9    20 1   
    21    10    11 1   
    22    11    21 1   
    23    11    22 1   
@<TRIPOS>SUBSTRUCTURE
     1 T1U         1 TEMP              0 ****  ****    0 ROOT
