@<TRIPOS>MOLECULE
T1U
   22    23     1     0     0
SMALL
No Charge or Current Charge


@<TRIPOS>ATOM
      1 N1           1.0880    -0.7090   -53.7740 nc         1 T1U      -0.567100
      2 C4           0.0090    -2.4980   -52.3960 ca         1 T1U      -0.047000
      3 C5           0.2420    -3.5270   -51.4580 ca         1 T1U      -0.136000
      4 C6           1.5530    -3.7950   -51.0010 ca         1 T1U      -0.094000
      5 C7           2.6390    -3.0340   -51.4810 ca         1 T1U      -0.115000
      6 C8           2.3680    -2.0200   -52.4120 ca         1 T1U      -0.075200
      7 N            3.2280    -1.1510   -53.0250 na         1 T1U      -0.176600
      8 C            4.6830    -1.0970   -52.8090 c3         1 T1U       0.073900
      9 O            3.3270     1.9280   -54.0290 oh         1 T1U      -0.659000
     10 C1           2.3940    -0.3680   -53.8460 cd         1 T1U       0.416800
     11 C2           2.8930     0.7520   -54.7530 c3         1 T1U       0.144300
     12 C3           1.1030    -1.7510   -52.8610 ca         1 T1U       0.069400
     13 H1          -0.9960    -2.2860   -52.7520 ha         1 T1U       0.128000
     14 H2          -0.5920    -4.1170   -51.0850 ha         1 T1U       0.113000
     15 H3           1.7250    -4.5900   -50.2790 ha         1 T1U       0.111000
     16 H4           3.6520    -3.2320   -51.1370 ha         1 T1U       0.116000
     17 H5           4.8900    -0.9000   -51.7500 h1         1 T1U       0.051033
     18 H6           5.1320    -2.0580   -53.0920 h1         1 T1U       0.051033
     19 H7           5.1290    -0.3000   -53.4160 h1         1 T1U       0.051033
     20 H8           3.5920     2.5980   -54.6990 ho         1 T1U       0.446000
     21 H9           2.0870     1.0160   -55.4500 h1         1 T1U       0.049200
     22 H10          3.7180     0.3540   -55.3580 h1         1 T1U       0.049200
@<TRIPOS>BOND
     1     1    10 2   
     2     1    12 1   
     3     2     3 ar  
     4     2    12 ar  
     5     2    13 1   
     6     3     4 ar  
     7     3    14 1   
     8     4     5 ar  
     9     4    15 1   
    10     5     6 ar  
    11     5    16 1   
    12     6     7 1   
    13     6    12 ar  
    14     7     8 1   
    15     7    10 1   
    16     8    17 1   
    17     8    18 1   
    18     8    19 1   
    19     9    11 1   
    20     9    20 1   
    21    10    11 1   
    22    11    21 1   
    23    11    22 1   
@<TRIPOS>SUBSTRUCTURE
     1 T1U         1 TEMP              0 ****  ****    0 ROOT
