@<TRIPOS>MOLECULE
T1V
   31    32     1     0     0
SMALL
abcg2


@<TRIPOS>ATOM
      1 N1           0.3690     0.8460    -0.7420 n3         1 T1V      -0.712500
      2 C4           0.9380     1.3130     0.5250 c6         1 T1V       0.164300
      3 C5           2.4530     1.3400     0.4100 c6         1 T1V       0.098000
      4 C6          -2.0950     0.0950     0.1740 cc         1 T1V      -0.484500
      5 C7          -2.4100     0.3950     1.4680 cd         1 T1V       0.010000
      6 C8          -3.0340    -0.6960     2.1200 cd         1 T1V      -0.156000
      7 N            2.9530     0.0420     0.0090 n          1 T1V      -0.415800
      8 C            4.1110    -2.0850     0.3530 c3         1 T1V      -0.177100
      9 O            4.0730    -0.3020     1.9350 o          1 T1V      -0.598100
     10 C1           3.7120    -0.7120     0.8400 c          1 T1V       0.608100
     11 C2           2.3900    -0.4030    -1.2460 c6         1 T1V       0.098000
     12 C3           0.8730    -0.4660    -1.1560 c6         1 T1V       0.164300
     13 C9          -3.1690    -1.7830     1.3070 cc         1 T1V      -0.214000
     14 O1          -1.5030     2.4950    -0.5860 o          1 T1V      -0.533000
     15 O2          -1.5840     0.6390    -2.2900 o          1 T1V      -0.533000
     16 S           -1.2480     1.1170    -0.9620 sy         1 T1V       1.193600
     17 S1          -2.5490    -1.5040    -0.2590 ss         1 T1V       0.328000
     18 H7           0.5870     2.3210     0.7360 h1         1 T1V       0.064450
     19 H8           0.6380     0.6610     1.3550 h1         1 T1V       0.064450
     20 H9           2.7480     2.0840    -0.3350 h1         1 T1V       0.068200
     21 H10          2.8840     1.6270     1.3640 h1         1 T1V       0.068200
     22 H11         -2.2170     1.3520     1.9310 ha         1 T1V       0.150000
     23 H12         -3.3760    -0.6710     3.1440 ha         1 T1V       0.142000
     24 H            4.6420    -2.0450    -0.5990 hc         1 T1V       0.061367
     25 H2           4.7640    -2.5440     1.0900 hc         1 T1V       0.061367
     26 H1           3.2420    -2.7310     0.2180 hc         1 T1V       0.061367
     27 H3           2.6790     0.2940    -2.0380 h1         1 T1V       0.068200
     28 H4           2.7670    -1.3830    -1.5220 h1         1 T1V       0.068200
     29 H5           0.5820    -1.2460    -0.4410 h1         1 T1V       0.064450
     30 H6           0.4740    -0.7230    -2.1340 h1         1 T1V       0.064450
     31 H13         -3.6160    -2.7350     1.5460 h4         1 T1V       0.154000
@<TRIPOS>BOND
     1     1     2 1   
     2     1    12 1   
     3     1    16 1   
     4     2     3 1   
     5     2    18 1   
     6     2    19 1   
     7     3     7 1   
     8     3    20 1   
     9     3    21 1   
    10     4     5 2   
    11     4    16 1   
    12     4    17 1   
    13     5     6 1   
    14     5    22 1   
    15     6    13 2   
    16     6    23 1   
    17     7    10 1   
    18     7    11 1   
    19     8    10 1   
    20     8    24 1   
    21     8    25 1   
    22     8    26 1   
    23     9    10 2   
    24    11    12 1   
    25    11    27 1   
    26    11    28 1   
    27    12    29 1   
    28    12    30 1   
    29    13    17 1   
    30    13    31 1   
    31    14    16 2   
    32    15    16 2   
@<TRIPOS>SUBSTRUCTURE
     1 T1V         1 TEMP              0 ****  ****    0 ROOT
