@<TRIPOS>MOLECULE
T1V
   31    32     1     0     0
SMALL
No Charge or Current Charge


@<TRIPOS>ATOM
      1 N1           0.2380     0.1740    -0.4950 n3         1 T1V      -0.712500
      2 C4           0.6170    -0.3640     0.8420 c6         1 T1V       0.164300
      3 C5           2.0340     0.1040     1.2710 c6         1 T1V       0.098000
      4 C6          -2.4110     0.0690     0.4360 cc         1 T1V      -0.484500
      5 C7          -2.7740     1.2580     1.0170 cd         1 T1V       0.010000
      6 C8          -3.6180     1.0830     2.1450 cd         1 T1V      -0.156000
      7 N            3.0510    -0.2170     0.2320 n          1 T1V      -0.415800
      8 C            5.0840    -1.4450    -0.6680 c3         1 T1V      -0.177100
      9 O            4.1740    -1.7530     1.5190 o          1 T1V      -0.598100
     10 C1           4.0710    -1.1730     0.4460 c          1 T1V       0.608100
     11 C2           2.6780     0.3330    -1.1030 c6         1 T1V       0.098000
     12 C3           1.2630    -0.1410    -1.5290 c6         1 T1V       0.164300
     13 C9          -3.8970    -0.2330     2.4220 cc         1 T1V      -0.214000
     14 O1          -1.7110     0.9380    -1.9010 o          1 T1V      -0.533000
     15 O2          -1.4160    -1.5550    -1.3670 o          1 T1V      -0.533000
     16 S           -1.3600    -0.1440    -0.9740 sy         1 T1V       1.193600
     17 S1          -3.1060    -1.3060     1.2700 ss         1 T1V       0.328000
     18 H7          -0.0920    -0.0340     1.6150 h1         1 T1V       0.064450
     19 H8           0.5960    -1.4640     0.8320 h1         1 T1V       0.064450
     20 H9           2.0170     1.1920     1.4260 h1         1 T1V       0.068200
     21 H10          2.2910    -0.3530     2.2360 h1         1 T1V       0.068200
     22 H11         -2.4480     2.2320     0.6560 ha         1 T1V       0.150000
     23 H12         -4.0040     1.9110     2.7320 ha         1 T1V       0.142000
     24 H            5.4750    -0.4940    -1.0460 hc         1 T1V       0.061367
     25 H2           5.8890    -2.1150    -0.3460 hc         1 T1V       0.061367
     26 H1           4.5570    -1.8590    -1.5350 hc         1 T1V       0.061367
     27 H3           2.6800     1.4310    -1.0450 h1         1 T1V       0.068200
     28 H4           3.3980     0.0550    -1.8830 h1         1 T1V       0.068200
     29 H5           1.2970    -1.2240    -1.7170 h1         1 T1V       0.064450
     30 H6           1.0080     0.3430    -2.4840 h1         1 T1V       0.064450
     31 H13         -4.5040    -0.6560     3.2110 h4         1 T1V       0.154000
@<TRIPOS>BOND
     1     1     2 1   
     2     1    12 1   
     3     1    16 1   
     4     2     3 1   
     5     2    18 1   
     6     2    19 1   
     7     3     7 1   
     8     3    20 1   
     9     3    21 1   
    10     4     5 2   
    11     4    16 1   
    12     4    17 1   
    13     5     6 1   
    14     5    22 1   
    15     6    13 2   
    16     6    23 1   
    17     7    10 1   
    18     7    11 1   
    19     8    10 1   
    20     8    24 1   
    21     8    25 1   
    22     8    26 1   
    23     9    10 2   
    24    11    12 1   
    25    11    27 1   
    26    11    28 1   
    27    12    29 1   
    28    12    30 1   
    29    13    17 1   
    30    13    31 1   
    31    14    16 2   
    32    15    16 2   
@<TRIPOS>SUBSTRUCTURE
     1 T1V         1 TEMP              0 ****  ****    0 ROOT
