@<TRIPOS>MOLECULE
T1W
   35    36     1     0     0
SMALL
abcg2


@<TRIPOS>ATOM
      1 C15          0.4600    -8.0700     8.7100 c6         1 T1W       0.070500
      2 C01          4.3560    -4.7080     6.6260 c3         1 T1W      -0.113100
      3 C02          2.9210    -4.2910     6.9450 c6         1 T1W       0.115700
      4 C03          2.4670    -3.0780     6.1290 c6         1 T1W      -0.081400
      5 C04          2.2190    -3.4100     4.6620 c6         1 T1W      -0.073400
      6 C05          1.2490    -4.5790     4.5400 c6         1 T1W      -0.085400
      7 C06          1.7390    -5.7580     5.3640 c6         1 T1W       0.101000
      8 C08          1.7280    -6.2290     7.7990 c          1 T1W       0.653100
      9 C11         -0.6290    -6.5800     7.0850 c6         1 T1W       0.070500
     10 C12         -1.8030    -6.8560     8.0060 c6         1 T1W       0.141600
     11 C14         -0.7230    -8.9400     8.3370 c6         1 T1W       0.141600
     12 N07          1.9490    -5.3690     6.7540 n          1 T1W      -0.419800
     13 N10          0.6110    -7.0180     7.7150 n          1 T1W      -0.424800
     14 O09          2.4720    -6.2920     8.7730 o          1 T1W      -0.630100
     15 O13         -1.9460    -8.2280     8.3120 os         1 T1W      -0.455000
     16 H1           1.3550    -8.6930     8.7320 h1         1 T1W       0.058200
     17 H2           0.3250    -7.6650     9.7190 h1         1 T1W       0.058200
     18 H3           4.6520    -5.5690     7.2240 hc         1 T1W       0.042033
     19 H4           4.5010    -4.9620     5.5760 hc         1 T1W       0.042033
     20 H5           5.0390    -3.8900     6.8590 hc         1 T1W       0.042033
     21 H6           2.8860    -4.0120     7.9980 h1         1 T1W       0.073700
     22 H7           3.2160    -2.2870     6.2230 hc         1 T1W       0.046700
     23 H8           1.5440    -2.6890     6.5690 hc         1 T1W       0.046700
     24 H9           3.1600    -3.6670     4.1680 hc         1 T1W       0.041700
     25 H10          1.8290    -2.5320     4.1420 hc         1 T1W       0.041700
     26 H11          0.2560    -4.2810     4.8880 hc         1 T1W       0.045200
     27 H12          1.1450    -4.8880     3.4980 hc         1 T1W       0.045200
     28 H13          1.0420    -6.5880     5.3040 h1         1 T1W       0.043700
     29 H14          2.6800    -6.1300     4.9400 h1         1 T1W       0.043700
     30 H15         -0.7970    -7.0800     6.1250 h1         1 T1W       0.058200
     31 H16         -0.5890    -5.5080     6.8850 h1         1 T1W       0.058200
     32 H17         -1.6940    -6.2620     8.9220 h1         1 T1W       0.050950
     33 H18         -2.7220    -6.5280     7.5150 h1         1 T1W       0.050950
     34 H19         -0.8200    -9.7440     9.0690 h1         1 T1W       0.050950
     35 H20         -0.5310    -9.4080     7.3630 h1         1 T1W       0.050950
@<TRIPOS>BOND
     1     1    11 1   
     2     1    13 1   
     3     1    16 1   
     4     1    17 1   
     5     2     3 1   
     6     2    18 1   
     7     2    19 1   
     8     2    20 1   
     9     3     4 1   
    10     3    12 1   
    11     3    21 1   
    12     4     5 1   
    13     4    22 1   
    14     4    23 1   
    15     5     6 1   
    16     5    24 1   
    17     5    25 1   
    18     6     7 1   
    19     6    26 1   
    20     6    27 1   
    21     7    12 1   
    22     7    28 1   
    23     7    29 1   
    24     8    12 1   
    25     8    13 1   
    26     8    14 2   
    27     9    10 1   
    28     9    13 1   
    29     9    30 1   
    30     9    31 1   
    31    10    15 1   
    32    10    32 1   
    33    10    33 1   
    34    11    15 1   
    35    11    34 1   
    36    11    35 1   
@<TRIPOS>SUBSTRUCTURE
     1 T1W         1 TEMP              0 ****  ****    0 ROOT
