@<TRIPOS>MOLECULE
T1W
   35    36     1     0     0
SMALL
No Charge or Current Charge


@<TRIPOS>ATOM
      1 C15          0.4210    -8.0550     8.8960 c6         1 T1W       0.070500
      2 C01          4.4720    -4.9020     6.3820 c3         1 T1W      -0.113100
      3 C02          3.1060    -4.3240     6.8530 c6         1 T1W       0.115700
      4 C03          2.7270    -3.0420     6.0580 c6         1 T1W      -0.081400
      5 C04          2.2960    -3.3520     4.6050 c6         1 T1W      -0.073400
      6 C05          1.1620    -4.3990     4.5980 c6         1 T1W      -0.085400
      7 C06          1.5600    -5.6610     5.3990 c6         1 T1W       0.101000
      8 C08          1.7660    -6.2010     7.8770 c          1 T1W       0.653100
      9 C11         -0.7450    -6.2590     7.5980 c6         1 T1W       0.070500
     10 C12         -1.9170    -7.2510     7.3800 c6         1 T1W       0.141600
     11 C14         -0.8090    -8.9650     8.6350 c6         1 T1W       0.141600
     12 N07          2.0090    -5.3340     6.7870 n          1 T1W      -0.419800
     13 N10          0.5590    -6.9320     7.9160 n          1 T1W      -0.424800
     14 O09          2.5860    -6.3160     8.7780 o          1 T1W      -0.630100
     15 O13         -2.0030    -8.1710     8.4850 os         1 T1W      -0.455000
     16 H1           1.3280    -8.6760     8.8700 h1         1 T1W       0.058200
     17 H2           0.3430    -7.6340     9.9080 h1         1 T1W       0.058200
     18 H3           4.7570    -5.7740     6.9820 hc         1 T1W       0.042033
     19 H4           4.4520    -5.2180     5.3330 hc         1 T1W       0.042033
     20 H5           5.2700    -4.1580     6.4880 hc         1 T1W       0.042033
     21 H6           3.2370    -4.0210     7.9030 h1         1 T1W       0.073700
     22 H7           3.5660    -2.3330     6.0590 hc         1 T1W       0.046700
     23 H8           1.9010    -2.5360     6.5760 hc         1 T1W       0.046700
     24 H9           3.1510    -3.7200     4.0230 hc         1 T1W       0.041700
     25 H10          1.9580    -2.4310     4.1110 hc         1 T1W       0.041700
     26 H11          0.2530    -3.9620     5.0350 hc         1 T1W       0.045200
     27 H12          0.9110    -4.6760     3.5650 hc         1 T1W       0.045200
     28 H13          0.7330    -6.3820     5.3960 h1         1 T1W       0.043700
     29 H14          2.3880    -6.1610     4.8770 h1         1 T1W       0.043700
     30 H15         -0.6660    -5.6040     6.7240 h1         1 T1W       0.058200
     31 H16         -1.0030    -5.6060     8.4430 h1         1 T1W       0.058200
     32 H17         -2.8640    -6.6980     7.2950 h1         1 T1W       0.050950
     33 H18         -1.7650    -7.8140     6.4470 h1         1 T1W       0.050950
     34 H19         -0.9420    -9.6640     9.4730 h1         1 T1W       0.050950
     35 H20         -0.6510    -9.5550     7.7210 h1         1 T1W       0.050950
@<TRIPOS>BOND
     1     1    11 1   
     2     1    13 1   
     3     1    16 1   
     4     1    17 1   
     5     2     3 1   
     6     2    18 1   
     7     2    19 1   
     8     2    20 1   
     9     3     4 1   
    10     3    12 1   
    11     3    21 1   
    12     4     5 1   
    13     4    22 1   
    14     4    23 1   
    15     5     6 1   
    16     5    24 1   
    17     5    25 1   
    18     6     7 1   
    19     6    26 1   
    20     6    27 1   
    21     7    12 1   
    22     7    28 1   
    23     7    29 1   
    24     8    12 1   
    25     8    13 1   
    26     8    14 2   
    27     9    10 1   
    28     9    13 1   
    29     9    30 1   
    30     9    31 1   
    31    10    15 1   
    32    10    32 1   
    33    10    33 1   
    34    11    15 1   
    35    11    34 1   
    36    11    35 1   
@<TRIPOS>SUBSTRUCTURE
     1 T1W         1 TEMP              0 ****  ****    0 ROOT
