@<TRIPOS>MOLECULE
T1X
   76    80     1     0     0
SMALL
abcg2


@<TRIPOS>ATOM
      1 NAE        -17.6240   -16.9900     4.5310 nc         1 T1X      -0.467100
      2 CAA        -18.5240   -18.0200     4.6920 ca         1 T1X       0.042400
      3 CAF        -18.8910   -18.9630     3.7300 ca         1 T1X       0.233000
      4 FAJ        -18.3180   -18.9030     2.5080 f          1 T1X      -0.152000
      5 CAG        -19.8260   -19.9360     4.0030 ca         1 T1X      -0.159000
      6 CAH        -20.4240   -19.9840     5.2710 ca         1 T1X      -0.071000
      7 CAI        -20.0990   -19.0670     6.2570 ca         1 T1X      -0.094000
      8 CAB        -19.1540   -18.0900     5.9550 ca         1 T1X      -0.156000
      9 SAC        -18.5630   -16.7840     6.9340 ss         1 T1X       0.011800
     10 CAD        -17.5470   -16.2690     5.6010 cd         1 T1X       0.345200
     11 C          -16.6940   -15.0310     5.7340 c3         1 T1X       0.149000
     12 O          -15.3130   -15.3280     5.5690 oh         1 T1X      -0.632000
     13 CA         -17.0670   -13.9960     4.6570 c3         1 T1X       0.114700
     14 CB         -16.4070   -12.6450     4.9280 c3         1 T1X      -0.066400
     15 CG         -16.7390   -11.6040     3.8690 c5         1 T1X      -0.152700
     16 CD1        -16.2210   -11.8870     2.4510 c5         1 T1X      -0.091400
     17 CAT        -16.0280   -10.4900     1.8450 c5         1 T1X       0.100000
     18 NAU        -15.7590    -9.6750     3.0250 ns         1 T1X      -0.513900
     19 CD2        -16.1680   -10.2240     4.1850 c          1 T1X       0.559000
     20 OAW        -16.1100    -9.6960     5.2940 o          1 T1X      -0.569000
     21 N          -18.5120   -13.8730     4.5770 ns         1 T1X      -0.504900
     22 CAN        -19.2240   -14.1390     3.4660 c          1 T1X       0.586100
     23 OAX        -18.7260   -14.4410     2.3860 o          1 T1X      -0.587100
     24 CAO        -20.7440   -14.1070     3.6640 c3         1 T1X       0.040700
     25 CAY        -21.2270   -15.5250     3.9840 c3         1 T1X      -0.086400
     26 CBN        -22.7190   -15.6540     4.3130 c3         1 T1X      -0.060700
     27 CBP        -23.1030   -14.8520     5.5570 c3         1 T1X      -0.090100
     28 CBO        -23.0700   -17.1320     4.4890 c3         1 T1X      -0.090100
     29 NAZ        -21.4000   -13.5990     2.4780 ns         1 T1X      -0.469900
     30 CBA        -21.2270   -12.3220     2.0830 c          1 T1X       0.632300
     31 OBQ        -20.6120   -11.4950     2.7650 o          1 T1X      -0.628100
     32 CBB        -21.8160   -11.9360     0.7900 cc         1 T1X      -0.147300
     33 NBF        -21.6940   -10.6230     0.3880 na         1 T1X      -0.175700
     34 CBC        -22.4960   -12.6440    -0.1780 cd         1 T1X      -0.161200
     35 CBD        -22.8070   -11.7260    -1.2230 ca         1 T1X      -0.122800
     36 CBE        -22.2890   -10.4670    -0.8290 ca         1 T1X      -0.037200
     37 CBJ        -22.4410    -9.3500    -1.6510 ca         1 T1X       0.110000
     38 FBK        -21.9400    -8.1520    -1.2450 f          1 T1X      -0.184000
     39 CBI        -23.0930    -9.4770    -2.8480 ca         1 T1X      -0.080000
     40 CBH        -23.6130   -10.7250    -3.2590 ca         1 T1X      -0.220000
     41 CBG        -23.4790   -11.8480    -2.4600 ca         1 T1X       0.186100
     42 OBL        -23.9440   -13.0880    -2.7630 os         1 T1X      -0.342100
     43 CBM        -24.6410   -13.2590    -3.9960 c3         1 T1X       0.146900
     44 H1         -20.0910   -20.6480     3.2340 ha         1 T1X       0.139000
     45 H2         -21.1600   -20.7500     5.4740 ha         1 T1X       0.123000
     46 H3         -20.5740   -19.1030     7.2280 ha         1 T1X       0.130000
     47 H4         -16.8720   -14.5930     6.7220 h1         1 T1X       0.043700
     48 H5         -15.0060   -15.8150     6.3450 ho         1 T1X       0.451000
     49 H6         -16.7420   -14.3930     3.6970 h1         1 T1X       0.114700
     50 H7         -15.3260   -12.7890     4.9780 hc         1 T1X       0.063700
     51 H8         -16.7330   -12.2790     5.9050 hc         1 T1X       0.063700
     52 H9         -17.8260   -11.4660     3.8350 hc         1 T1X       0.089700
     53 H10        -16.9000   -12.5030     1.8670 hc         1 T1X       0.068700
     54 H11        -15.2570   -12.3980     2.5120 hc         1 T1X       0.068700
     55 H12        -15.1960   -10.4430     1.1420 h1         1 T1X       0.046200
     56 H13        -16.9320   -10.1430     1.3350 h1         1 T1X       0.046200
     57 H14        -15.4660    -8.7110     2.9730 hn         1 T1X       0.325500
     58 H15        -19.0080   -13.5700     5.4030 hn         1 T1X       0.314500
     59 H16        -20.9720   -13.4380     4.4930 h1         1 T1X       0.077700
     60 H17        -20.9790   -16.1710     3.1360 hc         1 T1X       0.058700
     61 H18        -20.6490   -15.8890     4.8370 hc         1 T1X       0.058700
     62 H19        -23.2950   -15.2680     3.4650 hc         1 T1X       0.049700
     63 H20        -24.1580   -14.9970     5.7960 hc         1 T1X       0.035700
     64 H21        -22.5130   -15.1780     6.4190 hc         1 T1X       0.035700
     65 H22        -22.9390   -13.7810     5.4230 hc         1 T1X       0.035700
     66 H23        -24.1370   -17.2580     4.6890 hc         1 T1X       0.035700
     67 H24        -22.8200   -17.7080     3.5960 hc         1 T1X       0.035700
     68 H25        -22.5150   -17.5610     5.3280 hc         1 T1X       0.035700
     69 H26        -21.8000   -14.2640     1.8350 hn         1 T1X       0.330500
     70 H27        -21.2300    -9.9120     0.9310 hn         1 T1X       0.382000
     71 H28        -22.7450   -13.6910    -0.1540 ha         1 T1X       0.211000
     72 H29        -23.2100    -8.6090    -3.4840 ha         1 T1X       0.130000
     73 H30        -24.1200   -10.7800    -4.2100 ha         1 T1X       0.121000
     74 H31        -24.9310   -14.3060    -4.0320 h1         1 T1X       0.044367
     75 H32        -25.5330   -12.6280    -4.0320 h1         1 T1X       0.044367
     76 H33        -23.9950   -13.0260    -4.8460 h1         1 T1X       0.044367
@<TRIPOS>BOND
     1     1     2 1   
     2     1    10 2   
     3     2     3 ar  
     4     2     8 ar  
     5     3     4 1   
     6     3     5 ar  
     7     5     6 ar  
     8     5    44 1   
     9     6     7 ar  
    10     6    45 1   
    11     7     8 ar  
    12     7    46 1   
    13     8     9 1   
    14     9    10 1   
    15    10    11 1   
    16    11    12 1   
    17    11    13 1   
    18    11    47 1   
    19    12    48 1   
    20    13    14 1   
    21    13    21 1   
    22    13    49 1   
    23    14    15 1   
    24    14    50 1   
    25    14    51 1   
    26    15    16 1   
    27    15    19 1   
    28    15    52 1   
    29    16    17 1   
    30    16    53 1   
    31    16    54 1   
    32    17    18 1   
    33    17    55 1   
    34    17    56 1   
    35    18    19 1   
    36    18    57 1   
    37    19    20 2   
    38    21    22 1   
    39    21    58 1   
    40    22    23 2   
    41    22    24 1   
    42    24    25 1   
    43    24    29 1   
    44    24    59 1   
    45    25    26 1   
    46    25    60 1   
    47    25    61 1   
    48    26    27 1   
    49    26    28 1   
    50    26    62 1   
    51    27    63 1   
    52    27    64 1   
    53    27    65 1   
    54    28    66 1   
    55    28    67 1   
    56    28    68 1   
    57    29    30 1   
    58    29    69 1   
    59    30    31 2   
    60    30    32 1   
    61    32    33 1   
    62    32    34 2   
    63    33    36 1   
    64    33    70 1   
    65    34    35 1   
    66    34    71 1   
    67    35    36 ar  
    68    35    41 ar  
    69    36    37 ar  
    70    37    38 1   
    71    37    39 ar  
    72    39    40 ar  
    73    39    72 1   
    74    40    41 ar  
    75    40    73 1   
    76    41    42 1   
    77    42    43 1   
    78    43    74 1   
    79    43    75 1   
    80    43    76 1   
@<TRIPOS>SUBSTRUCTURE
     1 T1X         1 TEMP              0 ****  ****    0 ROOT
