@<TRIPOS>MOLECULE
T1X
   76    80     1     0     0
SMALL
No Charge or Current Charge


@<TRIPOS>ATOM
      1 NAE        -17.8650   -17.1280     3.8630 nc         1 T1X      -0.467100
      2 CAA        -19.0160   -17.9190     3.9190 ca         1 T1X       0.042400
      3 CAF        -19.5870   -18.5840     2.8100 ca         1 T1X       0.233000
      4 FAJ        -19.0150   -18.4970     1.5870 f          1 T1X      -0.152000
      5 CAG        -20.7670   -19.3350     2.9720 ca         1 T1X      -0.159000
      6 CAH        -21.3810   -19.4290     4.2380 ca         1 T1X      -0.071000
      7 CAI        -20.8110   -18.7700     5.3430 ca         1 T1X      -0.094000
      8 CAB        -19.6350   -18.0280     5.1550 ca         1 T1X      -0.156000
      9 SAC        -18.7920   -17.1320     6.4010 ss         1 T1X       0.011800
     10 CAD        -17.6740   -16.6440     5.1020 cd         1 T1X       0.345200
     11 C          -16.5890   -15.6110     5.3950 c3         1 T1X       0.149000
     12 O          -15.2560   -16.1250     5.1600 oh         1 T1X      -0.632000
     13 CA         -16.7980   -14.2920     4.5870 c3         1 T1X       0.114700
     14 CB         -15.8890   -13.1330     5.0770 c3         1 T1X      -0.066400
     15 CG         -16.0040   -11.8100     4.2680 c5         1 T1X      -0.152700
     16 CD1        -15.5900   -11.9110     2.7720 c5         1 T1X      -0.091400
     17 CAT        -15.3040   -10.4240     2.4310 c5         1 T1X       0.100000
     18 NAU        -14.7150    -9.9700     3.6890 ns         1 T1X      -0.513900
     19 CD2        -15.0990   -10.6850     4.7890 c          1 T1X       0.559000
     20 OAW        -14.5970   -10.5370     5.8910 o          1 T1X      -0.569000
     21 N          -18.2130   -13.8740     4.6030 ns         1 T1X      -0.504900
     22 CAN        -19.0260   -13.8150     3.4870 c          1 T1X       0.586100
     23 OAX        -18.5900   -13.9890     2.3560 o          1 T1X      -0.587100
     24 CAO        -20.5260   -13.5260     3.7760 c3         1 T1X       0.040700
     25 CAY        -21.2070   -14.7900     4.3760 c3         1 T1X      -0.086400
     26 CBN        -22.6820   -14.6310     4.8350 c3         1 T1X      -0.060700
     27 CBP        -22.8280   -13.6560     6.0280 c3         1 T1X      -0.090100
     28 CBO        -23.2970   -16.0060     5.1810 c3         1 T1X      -0.090100
     29 NAZ        -21.2010   -13.1040     2.5290 ns         1 T1X      -0.469900
     30 CBA        -22.0900   -12.0590     2.4120 c          1 T1X       0.632300
     31 OBQ        -22.3960   -11.3470     3.3580 o          1 T1X      -0.628100
     32 CBB        -22.6380   -11.8640     1.0430 cc         1 T1X      -0.147300
     33 NBF        -23.5570   -10.8900     0.5870 na         1 T1X      -0.175700
     34 CBC        -22.3530   -12.6210    -0.0950 cd         1 T1X      -0.161200
     35 CBD        -23.0840   -12.1210    -1.2330 ca         1 T1X      -0.122800
     36 CBE        -23.8090   -11.0600    -0.7680 ca         1 T1X      -0.037200
     37 CBJ        -24.6470   -10.3260    -1.6180 ca         1 T1X       0.110000
     38 FBK        -25.3620    -9.2760    -1.1540 f          1 T1X      -0.184000
     39 CBI        -24.7270   -10.7080    -2.9740 ca         1 T1X      -0.080000
     40 CBH        -23.9730   -11.8110    -3.4530 ca         1 T1X      -0.220000
     41 CBG        -23.1320   -12.5380    -2.5720 ca         1 T1X       0.186100
     42 OBL        -22.3720   -13.6200    -2.9680 os         1 T1X      -0.342100
     43 CBM        -22.3780   -14.0960    -4.3250 c3         1 T1X       0.146900
     44 H1         -21.2040   -19.8420     2.1150 ha         1 T1X       0.139000
     45 H2         -22.2940   -20.0080     4.3610 ha         1 T1X       0.123000
     46 H3         -21.2780   -18.8340     6.3240 ha         1 T1X       0.130000
     47 H4         -16.6850   -15.3530     6.4580 h1         1 T1X       0.043700
     48 H5         -15.1530   -16.9460     5.6900 ho         1 T1X       0.451000
     49 H6         -16.5140   -14.5170     3.5500 h1         1 T1X       0.114700
     50 H7         -14.8450   -13.4700     5.0600 hc         1 T1X       0.063700
     51 H8         -16.1220   -12.9330     6.1300 hc         1 T1X       0.063700
     52 H9         -17.0320   -11.4320     4.3150 hc         1 T1X       0.089700
     53 H10        -16.3660   -12.3460     2.1330 hc         1 T1X       0.068700
     54 H11        -14.6840   -12.5160     2.6490 hc         1 T1X       0.068700
     55 H12        -14.6200   -10.3210     1.5770 h1         1 T1X       0.046200
     56 H13        -16.2290    -9.8770     2.2030 h1         1 T1X       0.046200
     57 H14        -14.0410    -9.2210     3.7990 hn         1 T1X       0.325500
     58 H15        -18.6480   -13.6740     5.4970 hn         1 T1X       0.314500
     59 H16        -20.5550   -12.7070     4.5050 h1         1 T1X       0.077700
     60 H17        -21.1500   -15.5930     3.6300 hc         1 T1X       0.058700
     61 H18        -20.6220   -15.1330     5.2360 hc         1 T1X       0.058700
     62 H19        -23.2620   -14.2240     3.9970 hc         1 T1X       0.049700
     63 H20        -23.8800   -13.5640     6.3240 hc         1 T1X       0.035700
     64 H21        -22.2590   -14.0130     6.8950 hc         1 T1X       0.035700
     65 H22        -22.4680   -12.6540     5.7730 hc         1 T1X       0.035700
     66 H23        -24.3530   -15.9010     5.4580 hc         1 T1X       0.035700
     67 H24        -23.2400   -16.6850     4.3220 hc         1 T1X       0.035700
     68 H25        -22.7660   -16.4710     6.0210 hc         1 T1X       0.035700
     69 H26        -20.9720   -13.5990     1.6770 hn         1 T1X       0.330500
     70 H27        -23.9750   -10.1680     1.1660 hn         1 T1X       0.382000
     71 H28        -21.6800   -13.4740    -0.1400 ha         1 T1X       0.211000
     72 H29        -25.3710   -10.1530    -3.6510 ha         1 T1X       0.130000
     73 H30        -24.0550   -12.0830    -4.5010 ha         1 T1X       0.121000
     74 H31        -21.7100   -14.9600    -4.4280 h1         1 T1X       0.044367
     75 H32        -23.3870   -14.4090    -4.6240 h1         1 T1X       0.044367
     76 H33        -22.0330   -13.3140    -5.0140 h1         1 T1X       0.044367
@<TRIPOS>BOND
     1     1     2 1   
     2     1    10 2   
     3     2     3 ar  
     4     2     8 ar  
     5     3     4 1   
     6     3     5 ar  
     7     5     6 ar  
     8     5    44 1   
     9     6     7 ar  
    10     6    45 1   
    11     7     8 ar  
    12     7    46 1   
    13     8     9 1   
    14     9    10 1   
    15    10    11 1   
    16    11    12 1   
    17    11    13 1   
    18    11    47 1   
    19    12    48 1   
    20    13    14 1   
    21    13    21 1   
    22    13    49 1   
    23    14    15 1   
    24    14    50 1   
    25    14    51 1   
    26    15    16 1   
    27    15    19 1   
    28    15    52 1   
    29    16    17 1   
    30    16    53 1   
    31    16    54 1   
    32    17    18 1   
    33    17    55 1   
    34    17    56 1   
    35    18    19 1   
    36    18    57 1   
    37    19    20 2   
    38    21    22 1   
    39    21    58 1   
    40    22    23 2   
    41    22    24 1   
    42    24    25 1   
    43    24    29 1   
    44    24    59 1   
    45    25    26 1   
    46    25    60 1   
    47    25    61 1   
    48    26    27 1   
    49    26    28 1   
    50    26    62 1   
    51    27    63 1   
    52    27    64 1   
    53    27    65 1   
    54    28    66 1   
    55    28    67 1   
    56    28    68 1   
    57    29    30 1   
    58    29    69 1   
    59    30    31 2   
    60    30    32 1   
    61    32    33 1   
    62    32    34 2   
    63    33    36 1   
    64    33    70 1   
    65    34    35 1   
    66    34    71 1   
    67    35    36 ar  
    68    35    41 ar  
    69    36    37 ar  
    70    37    38 1   
    71    37    39 ar  
    72    39    40 ar  
    73    39    72 1   
    74    40    41 ar  
    75    40    73 1   
    76    41    42 1   
    77    42    43 1   
    78    43    74 1   
    79    43    75 1   
    80    43    76 1   
@<TRIPOS>SUBSTRUCTURE
     1 T1X         1 TEMP              0 ****  ****    0 ROOT
