@<TRIPOS>MOLECULE
T1Y
   34    35     1     0     0
SMALL
bcc


@<TRIPOS>ATOM
      1 N1          -3.1350    -0.2350     0.0110 n          1 T1Y      -0.484800
      2 C4           1.8760     0.4800     0.0620 ca         1 T1Y      -0.278500
      3 C5           2.3950    -0.7580     0.4170 ca         1 T1Y      -0.080000
      4 C6          -1.0250    -0.5520     1.1920 c6         1 T1Y       0.165800
      5 C7          -2.5360    -0.7150     1.2390 c6         1 T1Y       0.098000
      6 C8          -2.8110     1.1480    -0.2590 c6         1 T1Y       0.098000
      7 C10         -3.7650    -1.0760    -0.8450 c          1 T1Y       0.675100
      8 N           -0.7030     0.8480     0.9040 n3         1 T1Y      -0.714500
      9 C            3.1440    -1.4310    -0.5270 ca         1 T1Y       0.121900
     10 O            1.1780     0.8610     2.5550 o          1 T1Y      -0.599300
     11 C1           3.3870    -0.9140    -1.7860 ca         1 T1Y      -0.119000
     12 C11         -4.2730    -0.4880    -2.1400 c3         1 T1Y      -0.177100
     13 C2           2.8570     0.3260    -2.1110 ca         1 T1Y      -0.121000
     14 C3           2.0990     1.0360    -1.1910 ca         1 T1Y      -0.055000
     15 C9          -1.3040     1.3330    -0.3390 c6         1 T1Y       0.165800
     16 F            3.6570    -2.6240    -0.2050 f          1 T1Y      -0.135900
     17 O1           0.9140     2.7570     0.9280 o          1 T1Y      -0.599300
     18 O2          -3.9270    -2.2600    -0.5840 o          1 T1Y      -0.596100
     19 S            0.8440     1.3370     1.2240 sy         1 T1Y       1.292200
     20 H3           2.2360    -1.1880     1.3970 ha         1 T1Y       0.173000
     21 H5          -0.6130    -0.8360     2.1580 h1         1 T1Y       0.063950
     22 H4          -0.6060    -1.2160     0.4250 h1         1 T1Y       0.063950
     23 H7          -2.9380    -0.1450     2.0820 h1         1 T1Y       0.068950
     24 H6          -2.7820    -1.7620     1.3890 h1         1 T1Y       0.068950
     25 H9          -3.2600     1.4870    -1.1870 h1         1 T1Y       0.068950
     26 H8          -3.2100     1.7730     0.5460 h1         1 T1Y       0.068950
     27 H            3.9830    -1.4690    -2.4980 ha         1 T1Y       0.155000
     28 H14         -3.4580    -0.0980    -2.7520 hc         1 T1Y       0.061700
     29 H13         -4.7810    -1.2640    -2.7060 hc         1 T1Y       0.061700
     30 H12         -4.9740     0.3300    -1.9700 hc         1 T1Y       0.061700
     31 H1           3.0430     0.7450    -3.0900 ha         1 T1Y       0.142000
     32 H2           1.7020     2.0070    -1.4510 ha         1 T1Y       0.155000
     33 H11         -0.9130     0.7880    -1.2090 h1         1 T1Y       0.063950
     34 H10         -1.0870     2.3910    -0.4690 h1         1 T1Y       0.063950
@<TRIPOS>BOND
     1     1     5 1   
     2     1     6 1   
     3     1     7 1   
     4     2     3 ar  
     5     2    14 ar  
     6     2    19 1   
     7     3     9 ar  
     8     3    20 1   
     9     4     5 1   
    10     4     8 1   
    11     4    21 1   
    12     4    22 1   
    13     5    23 1   
    14     5    24 1   
    15     6    15 1   
    16     6    25 1   
    17     6    26 1   
    18     7    12 1   
    19     7    18 2   
    20     8    15 1   
    21     8    19 1   
    22     9    11 ar  
    23     9    16 1   
    24    10    19 2   
    25    11    13 ar  
    26    11    27 1   
    27    12    28 1   
    28    12    29 1   
    29    12    30 1   
    30    13    14 ar  
    31    13    31 1   
    32    14    32 1   
    33    15    33 1   
    34    15    34 1   
    35    17    19 2   
@<TRIPOS>SUBSTRUCTURE
     1 T1Y         1 TEMP              0 ****  ****    0 ROOT
