@<TRIPOS>MOLECULE
T1Y
   34    35     1     0     0
SMALL
No Charge or Current Charge


@<TRIPOS>ATOM
      1 N1          -3.0420    -0.4610    -0.2900 n          1 T1Y      -0.417800
      2 C4           1.9540     0.5640     0.1760 ca         1 T1Y      -0.278500
      3 C5           2.4930    -0.7050     0.4880 ca         1 T1Y      -0.062000
      4 C6          -0.8970    -0.5930     1.1210 c6         1 T1Y       0.165800
      5 C7          -2.3870    -0.9850     0.9490 c6         1 T1Y       0.098000
      6 C8          -2.6160     0.9200    -0.6820 c6         1 T1Y       0.098000
      7 C10         -4.3030    -0.9730    -0.6720 c          1 T1Y       0.608100
      8 N           -0.6760     0.8620     0.9280 n3         1 T1Y      -0.714500
      9 C            3.3220    -1.3630    -0.4350 ca         1 T1Y       0.157000
     10 O            1.1370     0.9060     2.7090 o          1 T1Y      -0.528500
     11 C1           3.6240    -0.7680    -1.6700 ca         1 T1Y      -0.101000
     12 C11         -4.9830    -0.4080    -1.9210 c3         1 T1Y      -0.177100
     13 C2           3.0950     0.4970    -1.9840 ca         1 T1Y      -0.103000
     14 C3           2.2650     1.1640    -1.0650 ca         1 T1Y      -0.037000
     15 C9          -1.1180     1.2390    -0.4370 c6         1 T1Y       0.165800
     16 F            3.8320    -2.5780    -0.1340 f          1 T1Y      -0.171000
     17 O1           0.8910     2.8570     1.0850 o          1 T1Y      -0.528500
     18 O2          -4.8220    -1.8950    -0.0550 o          1 T1Y      -0.596100
     19 S            0.8830     1.4140     1.3560 sy         1 T1Y       1.150600
     20 H3           2.2740    -1.1860     1.4400 ha         1 T1Y       0.155000
     21 H5          -0.5810    -0.9110     2.1250 h1         1 T1Y       0.063950
     22 H4          -0.3000    -1.1710     0.4000 h1         1 T1Y       0.063950
     23 H7          -2.9450    -0.6100     1.8180 h1         1 T1Y       0.068950
     24 H6          -2.4590    -2.0820     0.9690 h1         1 T1Y       0.068950
     25 H9          -2.8230     1.0960    -1.7460 h1         1 T1Y       0.068950
     26 H8          -3.2200     1.6410    -0.1120 h1         1 T1Y       0.068950
     27 H            4.2660    -1.2850    -2.3780 ha         1 T1Y       0.137000
     28 H14         -4.2680    -0.4050    -2.7510 hc         1 T1Y       0.061700
     29 H13         -5.8990    -0.9490    -2.1790 hc         1 T1Y       0.061700
     30 H12         -5.1850     0.6580    -1.7700 hc         1 T1Y       0.061700
     31 H1           3.3300     0.9620    -2.9390 ha         1 T1Y       0.124000
     32 H2           1.8640     2.1430    -1.3230 ha         1 T1Y       0.137000
     33 H11         -0.5230     0.7050    -1.1930 h1         1 T1Y       0.063950
     34 H10         -0.9700     2.3140    -0.6160 h1         1 T1Y       0.063950
@<TRIPOS>BOND
     1     1     5 1   
     2     1     6 1   
     3     1     7 1   
     4     2     3 ar  
     5     2    14 ar  
     6     2    19 1   
     7     3     9 ar  
     8     3    20 1   
     9     4     5 1   
    10     4     8 1   
    11     4    21 1   
    12     4    22 1   
    13     5    23 1   
    14     5    24 1   
    15     6    15 1   
    16     6    25 1   
    17     6    26 1   
    18     7    12 1   
    19     7    18 2   
    20     8    15 1   
    21     8    19 1   
    22     9    11 ar  
    23     9    16 1   
    24    10    19 2   
    25    11    13 ar  
    26    11    27 1   
    27    12    28 1   
    28    12    29 1   
    29    12    30 1   
    30    13    14 ar  
    31    13    31 1   
    32    14    32 1   
    33    15    33 1   
    34    15    34 1   
    35    17    19 2   
@<TRIPOS>SUBSTRUCTURE
     1 T1Y         1 TEMP              0 ****  ****    0 ROOT
