@<TRIPOS>MOLECULE
T1Z
   22    23     1     0     0
SMALL
abcg2


@<TRIPOS>ATOM
      1 C01          2.0370    -4.3190     5.0010 ca         1 T1Z      -0.080000
      2 C02          0.7180    -4.7170     4.8940 ca         1 T1Z      -0.085000
      3 C03          0.3200    -5.9670     5.3450 ca         1 T1Z       0.117000
      4 C04          1.2560    -6.8200     5.9210 ca         1 T1Z       0.126000
      5 C05          2.5760    -6.4210     6.0540 ca         1 T1Z      -0.112000
      6 C06          2.9610    -5.1740     5.5880 ca         1 T1Z       0.016800
      7 C08          5.4210    -5.5330     5.7220 cc         1 T1Z      -0.195000
      8 C09          6.4370    -4.6350     5.8990 cd         1 T1Z       0.203300
      9 C12          7.8970    -4.8940     6.0430 c3         1 T1Z       0.152300
     10 N07          4.3060    -4.7720     5.7110 na         1 T1Z       0.214000
     11 N10          5.8860    -3.4010     5.9890 nd         1 T1Z      -0.320000
     12 N11          4.6130    -3.4900     5.8730 nc         1 T1Z      -0.191800
     13 O13          8.6080    -3.8820     5.3740 oh         1 T1Z      -0.636000
     14 CL1          0.7930    -8.3720     6.4930 cl         1 T1Z      -0.157000
     15 CL2         -1.3230    -6.4460     5.1900 cl         1 T1Z      -0.156000
     16 H1           2.3400    -3.3530     4.6240 ha         1 T1Z       0.153000
     17 H2          -0.0060    -4.0570     4.4360 ha         1 T1Z       0.142000
     18 H3           3.2800    -7.0730     6.5540 ha         1 T1Z       0.141000
     19 H4           5.4160    -6.5990     5.5690 h4         1 T1Z       0.171000
     20 H5           8.1140    -5.8910     5.6410 h1         1 T1Z       0.026200
     21 H6           8.1490    -4.9260     7.1100 h1         1 T1Z       0.026200
     22 H7           9.5430    -3.9990     5.5700 ho         1 T1Z       0.444000
@<TRIPOS>BOND
     1     1     2 ar  
     2     1     6 ar  
     3     1    16 1   
     4     2     3 ar  
     5     2    17 1   
     6     3     4 ar  
     7     3    15 1   
     8     4     5 ar  
     9     4    14 1   
    10     5     6 ar  
    11     5    18 1   
    12     6    10 1   
    13     7     8 2   
    14     7    10 1   
    15     7    19 1   
    16     8     9 1   
    17     8    11 1   
    18     9    13 1   
    19     9    20 1   
    20     9    21 1   
    21    10    12 1   
    22    11    12 2   
    23    13    22 1   
@<TRIPOS>SUBSTRUCTURE
     1 T1Z         1 TEMP              0 ****  ****    0 ROOT
