@<TRIPOS>MOLECULE
T1Z
   22    23     1     0     0
SMALL
No Charge or Current Charge


@<TRIPOS>ATOM
      1 C01          2.0010    -4.2350     5.1460 ca         1 T1Z      -0.080000
      2 C02          0.6960    -4.7040     4.9080 ca         1 T1Z      -0.085000
      3 C03          0.3620    -6.0380     5.1910 ca         1 T1Z       0.117000
      4 C04          1.3400    -6.9080     5.7170 ca         1 T1Z       0.126000
      5 C05          2.6440    -6.4390     5.9540 ca         1 T1Z      -0.112000
      6 C06          2.9870    -5.0990     5.6710 ca         1 T1Z       0.016800
      7 C08          5.4240    -5.3570     5.6810 cc         1 T1Z      -0.195000
      8 C09          6.3950    -4.4980     6.1230 cd         1 T1Z       0.203300
      9 C12          7.8950    -4.7170     6.1340 c3         1 T1Z       0.152300
     10 N07          4.2860    -4.6340     5.9060 na         1 T1Z       0.214000
     11 N10          5.8070    -3.3340     6.6000 nd         1 T1Z      -0.320000
     12 N11          4.5060    -3.4220     6.4770 nc         1 T1Z      -0.191800
     13 O13          8.4140    -4.9830     4.8190 oh         1 T1Z      -0.636000
     14 Cl1          0.9560    -8.5890     6.0880 cl         1 T1Z      -0.157000
     15 Cl2         -1.2830    -6.5960     4.8820 cl         1 T1Z      -0.156000
     16 H1           2.2450    -3.1990     4.9170 ha         1 T1Z       0.153000
     17 H2          -0.0570    -4.0320     4.5020 ha         1 T1Z       0.142000
     18 H3           3.3830    -7.1210     6.3670 ha         1 T1Z       0.141000
     19 H4           5.4600    -6.3440     5.2440 h4         1 T1Z       0.171000
     20 H5           8.1150    -5.5590     6.8030 h1         1 T1Z       0.026200
     21 H6           8.3810    -3.8270     6.5560 h1         1 T1Z       0.026200
     22 H7           9.3860    -5.1050     4.9140 ho         1 T1Z       0.444000
@<TRIPOS>BOND
     1     1     2 ar  
     2     1     6 ar  
     3     1    16 1   
     4     2     3 ar  
     5     2    17 1   
     6     3     4 ar  
     7     3    15 1   
     8     4     5 ar  
     9     4    14 1   
    10     5     6 ar  
    11     5    18 1   
    12     6    10 1   
    13     7     8 2   
    14     7    10 1   
    15     7    19 1   
    16     8     9 1   
    17     8    11 1   
    18     9    13 1   
    19     9    20 1   
    20     9    21 1   
    21    10    12 1   
    22    11    12 2   
    23    13    22 1   
@<TRIPOS>SUBSTRUCTURE
     1 T1Z         1 TEMP              0 ****  ****    0 ROOT
