@<TRIPOS>MOLECULE
T20
   59    63     1     0     0
SMALL
No Charge or Current Charge


@<TRIPOS>ATOM
      1 C1          -0.5880    -2.5740     1.4660 ca         1 T20      -0.111500
      2 C2          -1.0220    -3.7900     2.0230 ca         1 T20      -0.103000
      3 C3          -0.9480    -4.9750     1.2710 ca         1 T20      -0.104000
      4 C4          -0.4380    -4.9450    -0.0380 ca         1 T20      -0.103000
      5 C5          -0.0050    -3.7290    -0.5970 ca         1 T20      -0.111500
      6 C6          -0.0820    -2.5400     0.1510 ca         1 T20      -0.007200
      7 C7           2.8260    -1.6720    -0.5410 ca         1 T20      -0.115000
      8 C8           1.6260    -0.9530    -0.6070 ca         1 T20      -0.066200
      9 C9           1.5670     0.3790    -0.9100 ca         1 T20       0.082400
     10 C10          2.7410     1.0970    -1.1800 ca         1 T20      -0.051000
     11 C11          3.9810     0.4160    -1.1280 ca         1 T20      -0.103300
     12 C12          4.0170    -0.9660    -0.8070 ca         1 T20      -0.075000
     13 C13         -4.5980    -0.9100     0.1620 ca         1 T20      -0.049000
     14 C14         -5.9480    -1.2050     0.4130 ca         1 T20      -0.128000
     15 C15         -6.9320    -0.2150     0.2760 ca         1 T20      -0.027000
     16 C16         -6.5710     1.0930    -0.1150 ca         1 T20      -0.185200
     17 C17         -5.2090     1.3880    -0.3660 ca         1 T20       0.004000
     18 C18         -4.2090     0.3950    -0.2330 ca         1 T20      -0.164600
     19 N19          0.3390    -1.3370    -0.4120 na         1 T20      -0.126400
     20 C20         -0.4840    -0.2220    -0.5680 cc         1 T20       0.495400
     21 N21          0.2520     0.8570    -0.8970 nd         1 T20      -0.560100
     22 N23         -1.8500    -0.2570    -0.4030 ns         1 T20      -0.420400
     23 C24         -2.7650     0.7640    -0.5140 c          1 T20       0.626700
     24 O25         -2.4510     1.9080    -0.8140 o          1 T20      -0.506100
     25 O27         -7.2560     3.2890    -0.6070 o          1 T20      -0.390500
     26 O28         -8.7950     1.8530    -0.0320 o          1 T20      -0.390500
     27 C30          5.5450     2.0170     0.9020 c6         1 T20       0.167300
     28 C31          6.4530     2.0160     2.1570 c6         1 T20      -0.074900
     29 C32          7.8550     2.5800     1.8310 c6         1 T20      -0.075400
     30 C33          8.4660     1.8210     0.6310 c6         1 T20      -0.074900
     31 C34          7.5020     1.8290    -0.5820 c6         1 T20       0.167300
     32 N35          6.1680     1.2680    -0.2290 n3         1 T20      -0.722600
     33 H1          -0.6410    -1.6630     2.0580 ha         1 T20       0.133500
     34 H2          -1.4130    -3.8140     3.0390 ha         1 T20       0.122500
     35 H3          -1.2830    -5.9150     1.7030 ha         1 T20       0.121000
     36 H4          -0.3780    -5.8620    -0.6200 ha         1 T20       0.122500
     37 H5           0.3880    -3.7100    -1.6110 ha         1 T20       0.133500
     38 H6           2.8410    -2.7300    -0.2930 ha         1 T20       0.122000
     39 H7           2.6910     2.1570    -1.4180 ha         1 T20       0.131000
     40 H8           4.9720    -1.4860    -0.7620 ha         1 T20       0.129000
     41 H9          -3.8740    -1.7110     0.2860 ha         1 T20       0.124000
     42 H10         -6.2330    -2.2100     0.7160 ha         1 T20       0.132000
     43 H11         -7.9710    -0.4740     0.4770 ha         1 T20       0.156000
     44 H12         -4.9230     2.3950    -0.6690 ha         1 T20       0.175000
     45 H13          5.8020     0.6340    -2.2190 h1         1 T20       0.037200
     46 H14          5.0450     2.1680    -1.7920 h1         1 T20       0.037200
     47 H15         -2.2410    -1.1530    -0.1640 hn         1 T20       0.332500
     48 H16          4.5790     1.5700     1.1770 h1         1 T20       0.031450
     49 H17          5.3460     3.0570     0.6030 h1         1 T20       0.031450
     50 H18          5.9850     2.6090     2.9540 hc         1 T20       0.045200
     51 H19          6.5450     0.9910     2.5400 hc         1 T20       0.045200
     52 H20          7.7780     3.6500     1.5930 hc         1 T20       0.038700
     53 H21          8.5110     2.4960     2.7070 hc         1 T20       0.038700
     54 H22          9.4250     2.2750     0.3480 hc         1 T20       0.045200
     55 H23          8.6830     0.7830     0.9190 hc         1 T20       0.045200
     56 H24          7.3960     2.8610    -0.9470 h1         1 T20       0.031450
     57 H25          7.9580     1.2440    -1.3950 h1         1 T20       0.031450
     58 C22          5.2800     1.1640    -1.4110 c3         1 T20       0.217100
     59 N26         -7.6170     2.1560    -0.2620 no         1 T20       0.695200
@<TRIPOS>BOND
     1     1     2 ar  
     2     1     6 ar  
     3     1    33 1   
     4     2     3 ar  
     5     2    34 1   
     6     3     4 ar  
     7     3    35 1   
     8     4     5 ar  
     9     4    36 1   
    10     5     6 ar  
    11     5    37 1   
    12     6    19 1   
    13     7     8 ar  
    14     7    12 ar  
    15     7    38 1   
    16     8     9 ar  
    17     8    19 1   
    18     9    10 ar  
    19     9    21 1   
    20    10    11 ar  
    21    10    39 1   
    22    11    12 ar  
    23    11    58 1   
    24    12    40 1   
    25    13    14 ar  
    26    13    18 ar  
    27    13    41 1   
    28    14    15 ar  
    29    14    42 1   
    30    15    16 ar  
    31    15    43 1   
    32    16    17 ar  
    33    16    59 1   
    34    17    18 ar  
    35    17    44 1   
    36    18    23 1   
    37    19    20 1   
    38    20    21 2   
    39    20    22 1   
    40    22    23 1   
    41    22    47 1   
    42    23    24 2   
    43    25    59 1   
    44    26    59 1   
    45    27    28 1   
    46    27    32 1   
    47    27    48 1   
    48    27    49 1   
    49    28    29 1   
    50    28    50 1   
    51    28    51 1   
    52    29    30 1   
    53    29    52 1   
    54    29    53 1   
    55    30    31 1   
    56    30    54 1   
    57    30    55 1   
    58    31    32 1   
    59    31    56 1   
    60    31    57 1   
    61    32    58 1   
    62    45    58 1   
    63    46    58 1   
@<TRIPOS>SUBSTRUCTURE
     1 T20         1 TEMP              0 ****  ****    0 ROOT
