@<TRIPOS>MOLECULE
T20
   59    63     1     0     0
SMALL
abcg2


@<TRIPOS>ATOM
      1 C1          -0.8060    -2.5470     1.4770 ca         1 T20      -0.111500
      2 C2          -1.2360    -3.7920     1.9100 ca         1 T20      -0.103000
      3 C3          -0.9990    -4.9200     1.1350 ca         1 T20      -0.104000
      4 C4          -0.3370    -4.8030    -0.0800 ca         1 T20      -0.103000
      5 C5           0.0780    -3.5580    -0.5320 ca         1 T20      -0.111500
      6 C6          -0.1580    -2.4350     0.2510 ca         1 T20      -0.007200
      7 C7           2.7900    -1.3990    -0.2970 ca         1 T20      -0.115000
      8 C8           1.5690    -0.7530    -0.4200 ca         1 T20      -0.066200
      9 C9           1.4650     0.5890    -0.8000 ca         1 T20       0.082400
     10 C10          2.6150     1.3240    -1.0750 ca         1 T20      -0.051000
     11 C11          3.8470     0.6980    -0.9680 ca         1 T20      -0.103300
     12 C12          3.9200    -0.6510    -0.5780 ca         1 T20      -0.075000
     13 C13         -4.5450    -0.7750     0.6170 ca         1 T20      -0.049000
     14 C14         -5.8760    -1.1110     0.8110 ca         1 T20      -0.128000
     15 C15         -6.8820    -0.3110     0.2980 ca         1 T20      -0.027000
     16 C16         -6.5270     0.8340    -0.4000 ca         1 T20      -0.185200
     17 C17         -5.2060     1.1970    -0.5910 ca         1 T20       0.004000
     18 C18         -4.2040     0.3750    -0.0910 ca         1 T20      -0.164600
     19 N19          0.2680    -1.1640    -0.2040 na         1 T20      -0.126400
     20 C20         -0.5200    -0.0750    -0.4750 cc         1 T20       0.495400
     21 N21          0.1440     0.9800    -0.8320 nd         1 T20      -0.560100
     22 N23         -1.8860    -0.2070    -0.3660 ns         1 T20      -0.420400
     23 C24         -2.7910     0.8160    -0.2960 c          1 T20       0.626700
     24 O25         -2.4970     1.9860    -0.3890 o          1 T20      -0.506100
     25 O27         -7.2450     2.6530    -1.5880 o          1 T20      -0.390500
     26 O28         -8.7230     1.3820    -0.7210 o          1 T20      -0.390500
     27 C30          5.7010     1.9120     1.0040 c6         1 T20       0.167300
     28 C31          6.7270     1.6750     2.1010 c6         1 T20      -0.074900
     29 C32          8.0940     2.2000     1.6860 c6         1 T20      -0.075400
     30 C33          8.4890     1.6100     0.3390 c6         1 T20      -0.074900
     31 C34          7.3990     1.8460    -0.6960 c6         1 T20       0.167300
     32 N35          6.1220     1.3150    -0.2520 n3         1 T20      -0.722600
     33 H1          -0.9620    -1.6690     2.0910 ha         1 T20       0.133500
     34 H2          -1.7460    -3.8810     2.8590 ha         1 T20       0.122500
     35 H3          -1.3270    -5.8920     1.4800 ha         1 T20       0.121000
     36 H4          -0.1510    -5.6800    -0.6840 ha         1 T20       0.122500
     37 H5           0.5770    -3.4580    -1.4880 ha         1 T20       0.133500
     38 H6           2.8680    -2.4360     0.0040 ha         1 T20       0.122000
     39 H7           2.5460     2.3680    -1.3560 ha         1 T20       0.131000
     40 H8           4.8950    -1.1110    -0.4800 ha         1 T20       0.129000
     41 H9          -3.7860    -1.4120     1.0540 ha         1 T20       0.124000
     42 H10         -6.1310    -2.0010     1.3680 ha         1 T20       0.132000
     43 H11         -7.9170    -0.5820     0.4450 ha         1 T20       0.156000
     44 H12         -4.9470     2.0990    -1.1270 ha         1 T20       0.175000
     45 H13          5.5360     1.0630    -2.2150 h1         1 T20       0.037200
     46 H14          4.8630     2.5090    -1.4800 h1         1 T20       0.037200
     47 H15         -2.2450    -1.1500    -0.4060 hn         1 T20       0.332500
     48 H16          4.7440     1.4780     1.2980 h1         1 T20       0.031450
     49 H17          5.5330     2.9990     0.8910 h1         1 T20       0.031450
     50 H18          6.3870     2.1560     3.0210 hc         1 T20       0.045200
     51 H19          6.7890     0.6020     2.3050 hc         1 T20       0.045200
     52 H20          8.0530     3.2920     1.6030 hc         1 T20       0.038700
     53 H21          8.8460     1.9720     2.4450 hc         1 T20       0.038700
     54 H22          9.4250     2.0460    -0.0190 hc         1 T20       0.045200
     55 H23          8.6590     0.5340     0.4420 hc         1 T20       0.045200
     56 H24          7.3330     2.9280    -0.9100 h1         1 T20       0.031450
     57 H25          7.6700     1.3580    -1.6360 h1         1 T20       0.031450
     58 C22          5.1140     1.4520    -1.2820 c3         1 T20       0.217100
     59 N26         -7.5770     1.6870    -0.9440 no         1 T20       0.695200
@<TRIPOS>BOND
     1     1     2 ar  
     2     1     6 ar  
     3     1    33 1   
     4     2     3 ar  
     5     2    34 1   
     6     3     4 ar  
     7     3    35 1   
     8     4     5 ar  
     9     4    36 1   
    10     5     6 ar  
    11     5    37 1   
    12     6    19 1   
    13     7     8 ar  
    14     7    12 ar  
    15     7    38 1   
    16     8     9 ar  
    17     8    19 1   
    18     9    10 ar  
    19     9    21 1   
    20    10    11 ar  
    21    10    39 1   
    22    11    12 ar  
    23    11    58 1   
    24    12    40 1   
    25    13    14 ar  
    26    13    18 ar  
    27    13    41 1   
    28    14    15 ar  
    29    14    42 1   
    30    15    16 ar  
    31    15    43 1   
    32    16    17 ar  
    33    16    59 1   
    34    17    18 ar  
    35    17    44 1   
    36    18    23 1   
    37    19    20 1   
    38    20    21 2   
    39    20    22 1   
    40    22    23 1   
    41    22    47 1   
    42    23    24 2   
    43    25    59 1   
    44    26    59 1   
    45    27    28 1   
    46    27    32 1   
    47    27    48 1   
    48    27    49 1   
    49    28    29 1   
    50    28    50 1   
    51    28    51 1   
    52    29    30 1   
    53    29    52 1   
    54    29    53 1   
    55    30    31 1   
    56    30    54 1   
    57    30    55 1   
    58    31    32 1   
    59    31    56 1   
    60    31    57 1   
    61    32    58 1   
    62    45    58 1   
    63    46    58 1   
@<TRIPOS>SUBSTRUCTURE
     1 T20         1 TEMP              0 ****  ****    0 ROOT
