@<TRIPOS>MOLECULE
T21
   28    30     1     0     0
SMALL
bcc


@<TRIPOS>ATOM
      1 C1          -4.6270    -1.8830    -0.0070 cc         1 T21       0.031600
      2 C6          -2.0090     1.3070     0.0240 cc         1 T21      -0.175300
      3 C5          -3.2810    -2.0640    -0.0150 cd         1 T21      -0.330800
      4 C3          -3.0960     0.3880     0.0170 cc         1 T21      -0.325900
      5 C14          3.8730    -0.8440    -0.0110 c3         1 T21       0.721200
      6 C11          3.2390     1.5900     0.0060 ca         1 T21      -0.073000
      7 C10          2.2580     2.5750     0.0150 ca         1 T21      -0.133000
      8 C9           0.9200     2.2330     0.0150 ca         1 T21      -0.086000
      9 C8           0.5290     0.8900     0.0060 ca         1 T21      -0.120500
     10 F3           3.7370    -1.6340    -1.0850 f          1 T21      -0.233967
     11 F1           3.7480    -1.6380     1.0630 f          1 T21      -0.233967
     12 F2           5.1280    -0.3890    -0.0160 f          1 T21      -0.233967
     13 C12          2.8570     0.2570    -0.0030 ca         1 T21      -0.196300
     14 C13          1.5130    -0.0970    -0.0030 ca         1 T21      -0.061000
     15 C7          -0.8820     0.5500     0.0080 cd         1 T21       0.280200
     16 C2          -4.5200     0.5650     0.0270 c          1 T21       0.742100
     17 O2          -5.1200     1.6320     0.0460 o          1 T21      -0.618500
     18 N           -5.1920    -0.6460     0.0130 ns         1 T21      -0.449100
     19 O1          -1.2040    -0.7780    -0.0080 os         1 T21      -0.316800
     20 C4          -2.5370    -0.8710    -0.0030 cd         1 T21       0.392500
     21 H1          -5.3220    -2.7080    -0.0160 h4         1 T21       0.155000
     22 H2          -2.0660     2.3830     0.0380 ha         1 T21       0.175000
     23 H3          -2.8400    -3.0490    -0.0310 ha         1 T21       0.169000
     24 H5           4.2810     1.8780     0.0060 ha         1 T21       0.152000
     25 H6           2.5450     3.6170     0.0210 ha         1 T21       0.142000
     26 H7           0.1730     3.0160     0.0210 ha         1 T21       0.141000
     27 H8           1.2300    -1.1410    -0.0090 ha         1 T21       0.158000
     28 H4          -6.2020    -0.5960     0.0200 hn         1 T21       0.328500
@<TRIPOS>BOND
     1     1     3 2   
     2     1    18 1   
     3     1    21 1   
     4     2     4 1   
     5     2    15 2   
     6     2    22 1   
     7     3    20 1   
     8     3    23 1   
     9     4    16 1   
    10     4    20 2   
    11     5    10 1   
    12     5    11 1   
    13     5    12 1   
    14     5    13 1   
    15     6     7 ar  
    16     6    13 ar  
    17     6    24 1   
    18     7     8 ar  
    19     7    25 1   
    20     8     9 ar  
    21     8    26 1   
    22     9    14 ar  
    23     9    15 1   
    24    13    14 ar  
    25    14    27 1   
    26    15    19 1   
    27    16    17 2   
    28    16    18 1   
    29    18    28 1   
    30    19    20 1   
@<TRIPOS>SUBSTRUCTURE
     1 T21         1 TEMP              0 ****  ****    0 ROOT
