@<TRIPOS>MOLECULE
T21
   28    30     1     0     0
SMALL
No Charge or Current Charge


@<TRIPOS>ATOM
      1 C1          -4.7460    -1.8870    -0.0390 cc         1 T21      -0.018400
      2 C6          -2.0240     1.2440     0.0300 cc         1 T21      -0.092000
      3 C5          -3.3730    -2.0700    -0.0460 cd         1 T21      -0.380800
      4 C3          -3.1060     0.3400     0.0110 cc         1 T21      -0.260600
      5 C14          4.0050    -0.8280    -0.0220 c3         1 T21       0.357300
      6 C11          3.2540     1.6220     0.0350 ca         1 T21      -0.055000
      7 C10          2.2460     2.5970     0.0590 ca         1 T21      -0.115000
      8 C9           0.8930     2.2200     0.0470 ca         1 T21      -0.068000
      9 C8           0.5320     0.8570     0.0160 ca         1 T21      -0.120500
     10 F3           3.6720    -1.8730    -0.8140 f          1 T21      -0.112667
     11 F1           4.2230    -1.3230     1.2160 f          1 T21      -0.112667
     12 F2           5.1930    -0.3650    -0.4760 f          1 T21      -0.112667
     13 C12          2.9170     0.2520    -0.0060 ca         1 T21      -0.196300
     14 C13          1.5540    -0.1190    -0.0080 ca         1 T21      -0.043000
     15 C7          -0.8910     0.4620     0.0090 cd         1 T21       0.170500
     16 C2          -4.5500     0.5770     0.0190 c          1 T21       0.599600
     17 O2          -5.0770     1.6780     0.0470 o          1 T21      -0.543000
     18 N           -5.2750    -0.5950    -0.0070 ns         1 T21      -0.382100
     19 O1          -1.1900    -0.8880    -0.0220 os         1 T21      -0.228000
     20 C4          -2.5590    -0.8960    -0.0200 cd         1 T21       0.282800
     21 H1          -5.5000    -2.6720    -0.0560 h4         1 T21       0.205000
     22 H2          -2.0920     2.3270     0.0560 ha         1 T21       0.157000
     23 H3          -2.9260    -3.0590    -0.0700 ha         1 T21       0.219000
     24 H5           4.2960     1.9380     0.0520 ha         1 T21       0.134000
     25 H6           2.5130     3.6510     0.0890 ha         1 T21       0.124000
     26 H7           0.1320     2.9960     0.0670 ha         1 T21       0.123000
     27 H8           1.2920    -1.1750    -0.0260 ha         1 T21       0.140000
     28 H4          -6.2810    -0.4680    -0.0020 hn         1 T21       0.328500
@<TRIPOS>BOND
     1     1     3 2   
     2     1    18 1   
     3     1    21 1   
     4     2     4 1   
     5     2    15 2   
     6     2    22 1   
     7     3    20 1   
     8     3    23 1   
     9     4    16 1   
    10     4    20 2   
    11     5    10 1   
    12     5    11 1   
    13     5    12 1   
    14     5    13 1   
    15     6     7 ar  
    16     6    13 ar  
    17     6    24 1   
    18     7     8 ar  
    19     7    25 1   
    20     8     9 ar  
    21     8    26 1   
    22     9    14 ar  
    23     9    15 1   
    24    13    14 ar  
    25    14    27 1   
    26    15    19 1   
    27    16    17 2   
    28    16    18 1   
    29    18    28 1   
    30    19    20 1   
@<TRIPOS>SUBSTRUCTURE
     1 T21         1 TEMP              0 ****  ****    0 ROOT
