@<TRIPOS>MOLECULE
T22
   46    48     1     0     0
SMALL
No Charge or Current Charge


@<TRIPOS>ATOM
      1 O26         -2.7700    -1.3550     1.6620 o          1 T22      -0.555000
      2 C25         -1.8020    -1.5550     0.9390 c          1 T22       0.619000
      3 N2          -1.6840    -2.7610     0.2300 n          1 T22      -0.362400
      4 C1          -2.7810    -3.7580     0.3660 c3         1 T22       0.085300
      5 N15         -0.7820    -0.5910     0.7930 n          1 T22      -0.334000
      6 C16         -0.9590     0.7410     1.4530 c3         1 T22       0.145300
      7 C17         -0.8750     1.9660     0.5260 ca         1 T22      -0.052300
      8 C22         -1.6800     2.1090    -0.6360 ca         1 T22      -0.004000
      9 C23         -2.6530     1.1210    -1.0220 cg         1 T22       0.313000
     10 N24         -3.4440     0.3270    -1.3510 n1         1 T22      -0.437000
     11 C21         -1.5350     3.2510    -1.4510 ca         1 T22      -0.072000
     12 C20         -0.6070     4.2510    -1.1210 ca         1 T22      -0.112000
     13 C19          0.1810     4.1200     0.0310 ca         1 T22      -0.091000
     14 C18          0.0440     2.9870     0.8490 ca         1 T22      -0.103000
     15 C6           0.3360    -0.8880     0.0280 cc         1 T22       0.338600
     16 C5           0.4400    -2.0610    -0.6410 cd         1 T22      -0.449200
     17 C3          -0.5910    -3.0820    -0.5800 c          1 T22       0.602200
     18 O4          -0.4840    -4.1370    -1.1870 o          1 T22      -0.536000
     19 N7           1.3550     0.0270    -0.0200 nh         1 T22      -0.692400
     20 C14          2.3670     0.1070     1.0710 c6         1 T22       0.217800
     21 C11          3.7550    -0.4470     0.6100 c6         1 T22       0.124500
     22 N13          4.8030    -0.3160     1.6570 n8         1 T22      -0.990200
     23 C10          4.2200     0.2620    -0.6860 c6         1 T22      -0.110400
     24 C9           3.1360     0.1370    -1.7850 c6         1 T22      -0.103400
     25 C8           1.7630     0.6660    -1.3000 c6         1 T22       0.212800
     26 H1          -3.7560    -3.2560     0.3140 h1         1 T22       0.058033
     27 H1A         -2.7520    -4.5070    -0.4340 h1         1 T22       0.058033
     28 H1B         -2.6950    -4.2680     1.3330 h1         1 T22       0.058033
     29 H16         -1.9190     0.8000     1.9780 h1         1 T22       0.081200
     30 H16A        -0.1900     0.8270     2.2310 h1         1 T22       0.081200
     31 H21         -2.1460     3.3660    -2.3450 ha         1 T22       0.128000
     32 H20         -0.5020     5.1280    -1.7560 ha         1 T22       0.122000
     33 H19          0.8990     4.8950     0.2910 ha         1 T22       0.118000
     34 H18          0.6670     2.9000     1.7370 ha         1 T22       0.117000
     35 H5           1.3030    -2.3110    -1.2400 ha         1 T22       0.218000
     36 H14          2.4810     1.1530     1.3890 h1         1 T22       0.063200
     37 H14A         2.0270    -0.4620     1.9480 h1         1 T22       0.063200
     38 H11          3.6320    -1.5210     0.3980 h1         1 T22       0.070700
     39 HN13         5.6760    -0.7220     1.3010 hn         1 T22       0.396500
     40 HN1A         5.0350     0.6770     1.7720 hn         1 T22       0.396500
     41 H10          4.4190     1.3240    -0.4870 hc         1 T22       0.042700
     42 H10A         5.1620    -0.1770    -1.0450 hc         1 T22       0.042700
     43 H9           3.4460     0.6920    -2.6810 hc         1 T22       0.055200
     44 H9A          3.0400    -0.9130    -2.0910 hc         1 T22       0.055200
     45 H8           1.0060     0.4860    -2.0770 h1         1 T22       0.060200
     46 H8A          1.8250     1.7560    -1.1620 h1         1 T22       0.060200
@<TRIPOS>BOND
     1     1     2 2   
     2     2     3 1   
     3     2     5 1   
     4     3     4 1   
     5     3    17 1   
     6     4    26 1   
     7     4    27 1   
     8     4    28 1   
     9     5     6 1   
    10     5    15 1   
    11     6     7 1   
    12     6    29 1   
    13     6    30 1   
    14     7     8 ar  
    15     7    14 ar  
    16     8     9 1   
    17     8    11 ar  
    18     9    10 3   
    19    11    12 ar  
    20    11    31 1   
    21    12    13 ar  
    22    12    32 1   
    23    13    14 ar  
    24    13    33 1   
    25    14    34 1   
    26    15    16 2   
    27    15    19 1   
    28    16    17 1   
    29    16    35 1   
    30    17    18 2   
    31    19    20 1   
    32    19    25 1   
    33    20    21 1   
    34    20    36 1   
    35    20    37 1   
    36    21    22 1   
    37    21    23 1   
    38    21    38 1   
    39    22    39 1   
    40    22    40 1   
    41    23    24 1   
    42    23    41 1   
    43    23    42 1   
    44    24    25 1   
    45    24    43 1   
    46    24    44 1   
    47    25    45 1   
    48    25    46 1   
@<TRIPOS>SUBSTRUCTURE
     1 T22         1 TEMP              0 ****  ****    0 ROOT
