@<TRIPOS>MOLECULE
T22
   46    48     1     0     0
SMALL
abcg2


@<TRIPOS>ATOM
      1 O26         -2.2000    -1.5140     2.0480 o          1 T22      -0.555000
      2 C25         -1.4700    -1.5550     1.0780 c          1 T22       0.619000
      3 N2          -1.5700    -2.5560     0.1480 n          1 T22      -0.362400
      4 C1          -2.6050    -3.5510     0.3880 c3         1 T22       0.085300
      5 N15         -0.5190    -0.5730     0.8480 n          1 T22      -0.334000
      6 C16         -0.7080     0.7110     1.5320 c3         1 T22       0.145300
      7 C17         -0.7800     1.8810     0.5850 ca         1 T22      -0.052300
      8 C22         -1.6630     1.9020    -0.5020 ca         1 T22      -0.004000
      9 C23         -2.5440     0.8070    -0.7520 cg         1 T22       0.313000
     10 N24         -3.2830    -0.0530    -0.9610 n1         1 T22      -0.437000
     11 C21         -1.7290     3.0040    -1.3560 ca         1 T22      -0.072000
     12 C20         -0.9270     4.1060    -1.1210 ca         1 T22      -0.112000
     13 C19         -0.0670     4.1060    -0.0320 ca         1 T22      -0.091000
     14 C18          0.0030     3.0040     0.8080 ca         1 T22      -0.103000
     15 C6           0.4030    -0.6880    -0.1810 cc         1 T22       0.338600
     16 C5           0.2270    -1.6440    -1.1290 cd         1 T22      -0.449200
     17 C3          -0.8300    -2.6010    -1.0370 c          1 T22       0.602200
     18 O4          -1.0550    -3.4580    -1.8780 o          1 T22      -0.536000
     19 N7           1.4020     0.2380    -0.1900 nh         1 T22      -0.692400
     20 C14          2.2980     0.3390     0.9560 c6         1 T22       0.217800
     21 C11          3.5920    -0.4510     0.7410 c6         1 T22       0.124500
     22 N13          4.4170    -0.2870     1.9270 n8         1 T22      -0.990200
     23 C10          4.2620    -0.0440    -0.5700 c6         1 T22      -0.110400
     24 C9           3.2950    -0.1540    -1.7440 c6         1 T22      -0.103400
     25 C8           2.0200     0.6230    -1.4480 c6         1 T22       0.212800
     26 H1          -3.5950    -3.1030     0.3270 h1         1 T22       0.058033
     27 H1A         -2.5220    -4.3260    -0.3640 h1         1 T22       0.058033
     28 H1B         -2.4790    -3.9990     1.3710 h1         1 T22       0.058033
     29 H16         -1.6380     0.6360     2.0920 h1         1 T22       0.081200
     30 H16A         0.0720     0.8850     2.2710 h1         1 T22       0.081200
     31 H21         -2.4140     2.9930    -2.1930 ha         1 T22       0.128000
     32 H20         -0.9790     4.9610    -1.7810 ha         1 T22       0.122000
     33 H19          0.5590     4.9670     0.1640 ha         1 T22       0.118000
     34 H18          0.6870     3.0140     1.6470 ha         1 T22       0.117000
     35 H5           0.9440    -1.7700    -1.9250 ha         1 T22       0.218000
     36 H14          2.5320     1.3960     1.1260 h1         1 T22       0.063200
     37 H14A         1.8160    -0.0390     1.8550 h1         1 T22       0.063200
     38 H11          3.3210    -1.5110     0.6770 h1         1 T22       0.070700
     39 HN13         5.2040    -0.9220     1.8820 hn         1 T22       0.396500
     40 HN1A         4.8170     0.6440     1.9360 hn         1 T22       0.396500
     41 H10          4.6150     0.9910    -0.4830 hc         1 T22       0.042700
     42 H10A         5.1450    -0.6650    -0.7420 hc         1 T22       0.042700
     43 H9           3.7500     0.2370    -2.6570 hc         1 T22       0.055200
     44 H9A          3.0600    -1.2050    -1.9360 hc         1 T22       0.055200
     45 H8           1.2880     0.5210    -2.2480 h1         1 T22       0.060200
     46 H8A          2.2550     1.6900    -1.3700 h1         1 T22       0.060200
@<TRIPOS>BOND
     1     1     2 2   
     2     2     3 1   
     3     2     5 1   
     4     3     4 1   
     5     3    17 1   
     6     4    26 1   
     7     4    27 1   
     8     4    28 1   
     9     5     6 1   
    10     5    15 1   
    11     6     7 1   
    12     6    29 1   
    13     6    30 1   
    14     7     8 ar  
    15     7    14 ar  
    16     8     9 1   
    17     8    11 ar  
    18     9    10 3   
    19    11    12 ar  
    20    11    31 1   
    21    12    13 ar  
    22    12    32 1   
    23    13    14 ar  
    24    13    33 1   
    25    14    34 1   
    26    15    16 2   
    27    15    19 1   
    28    16    17 1   
    29    16    35 1   
    30    17    18 2   
    31    19    20 1   
    32    19    25 1   
    33    20    21 1   
    34    20    36 1   
    35    20    37 1   
    36    21    22 1   
    37    21    23 1   
    38    21    38 1   
    39    22    39 1   
    40    22    40 1   
    41    23    24 1   
    42    23    41 1   
    43    23    42 1   
    44    24    25 1   
    45    24    43 1   
    46    24    44 1   
    47    25    45 1   
    48    25    46 1   
@<TRIPOS>SUBSTRUCTURE
     1 T22         1 TEMP              0 ****  ****    0 ROOT
