@<TRIPOS>MOLECULE
T24
   50    49     1     0     0
SMALL
No Charge or Current Charge


@<TRIPOS>ATOM
      1 CAR          8.8890     1.5990    -0.5030 c3         1 T24      -0.085100
      2 CAQ          7.7260     2.1890     0.3140 c3         1 T24      -0.044200
      3 CAP          6.6000     2.6900    -0.5710 c2         1 T24      -0.215200
      4 CAO          5.5130     2.0050    -0.9730 c2         1 T24      -0.208200
      5 CAN          5.1680     0.5540    -0.6650 c3         1 T24      -0.079200
      6 CAM          3.8710     0.3910     0.1670 c3         1 T24       0.210500
      7 OAS          4.0390     0.9900     1.4500 oh         1 T24      -0.647000
      8 CAL          3.4950    -1.0590     0.3780 c2         1 T24      -0.273200
      9 CAK          2.3100    -1.5000     0.8520 ce         1 T24      -0.151000
     10 CAJ          1.9980    -2.9240     1.0280 ce         1 T24      -0.209000
     11 CAI          0.8270    -3.4110     1.4960 c2         1 T24      -0.178200
     12 CAH         -0.3920    -2.6180     1.9320 c3         1 T24      -0.051200
     13 CAG         -1.2500    -2.1510     0.7360 c3         1 T24      -0.072400
     14 CAF         -2.4910    -1.3370     1.1620 c3         1 T24      -0.076400
     15 CAE         -3.3490    -0.8710    -0.0350 c3         1 T24      -0.074400
     16 CAD         -4.5900    -0.0560     0.3910 c3         1 T24      -0.079400
     17 CAC         -5.4490     0.4100    -0.8060 c3         1 T24      -0.054400
     18 CAB         -6.6940     1.2260    -0.3820 c3         1 T24      -0.203400
     19 CAA         -7.4980     1.6540    -1.6240 c          1 T24       0.717000
     20 OAU         -7.2090     2.7110    -2.1630 o          1 T24      -0.744000
     21 OAT         -8.3590     0.8950    -2.0430 o          1 T24      -0.744000
     22 HAR1         9.3080     2.3530    -1.1800 hc         1 T24       0.031367
     23 HAR2         9.6890     1.2530     0.1630 hc         1 T24       0.031367
     24 HAR3         8.5470     0.7460    -1.1020 hc         1 T24       0.031367
     25 HAQ1         7.3650     1.4290     1.0170 hc         1 T24       0.043700
     26 HAQ2         8.1050     3.0120     0.9330 hc         1 T24       0.043700
     27 HAP          6.7200     3.7310    -0.8800 ha         1 T24       0.164000
     28 HAO          4.7750     2.5030    -1.6060 ha         1 T24       0.167000
     29 HAN1         5.0360     0.0170    -1.6120 hc         1 T24       0.050200
     30 HAN2         5.9920     0.0470    -0.1510 hc         1 T24       0.050200
     31 HAM          3.0550     0.8900    -0.3770 h1         1 T24       0.075700
     32 HOAS         4.6550     0.4080     1.9410 ho         1 T24       0.440000
     33 HAL          4.2730    -1.7730     0.1040 ha         1 T24       0.168000
     34 HAK          1.5360    -0.7780     1.1210 ha         1 T24       0.181000
     35 HAJ          2.7890    -3.6260     0.7530 ha         1 T24       0.163000
     36 HAI          0.6960    -4.4920     1.5870 ha         1 T24       0.165000
     37 HAH1        -1.0130    -3.2360     2.5930 hc         1 T24       0.045700
     38 HAH2        -0.0880    -1.7490     2.5270 hc         1 T24       0.045700
     39 HAG1        -0.6340    -1.5420     0.0640 hc         1 T24       0.038700
     40 HAG2        -1.5730    -3.0300     0.1640 hc         1 T24       0.038700
     41 HAF1        -3.1100    -1.9470     1.8330 hc         1 T24       0.032700
     42 HAF2        -2.1670    -0.4590     1.7350 hc         1 T24       0.032700
     43 HAE1        -2.7300    -0.2610    -0.7050 hc         1 T24       0.034700
     44 HAE2        -3.6740    -1.7480    -0.6080 hc         1 T24       0.034700
     45 HAD1        -5.2080    -0.6660     1.0620 hc         1 T24       0.024200
     46 HAD2        -4.2650     0.8210     0.9640 hc         1 T24       0.024200
     47 HAC1        -4.8300     1.0180    -1.4770 hc         1 T24       0.038200
     48 HAC2        -5.7720    -0.4680    -1.3800 hc         1 T24       0.038200
     49 HAB1        -7.2910     0.5570     0.2500 hc         1 T24       0.014200
     50 HAB2        -6.3090     2.1070     0.1480 hc         1 T24       0.014200
@<TRIPOS>BOND
     1     1     2 1   
     2     1    22 1   
     3     1    23 1   
     4     1    24 1   
     5     2     3 1   
     6     2    25 1   
     7     2    26 1   
     8     3     4 2   
     9     3    27 1   
    10     4     5 1   
    11     4    28 1   
    12     5     6 1   
    13     5    29 1   
    14     5    30 1   
    15     6     7 1   
    16     6     8 1   
    17     6    31 1   
    18     7    32 1   
    19     8     9 2   
    20     8    33 1   
    21     9    10 1   
    22     9    34 1   
    23    10    11 2   
    24    10    35 1   
    25    11    12 1   
    26    11    36 1   
    27    12    13 1   
    28    12    37 1   
    29    12    38 1   
    30    13    14 1   
    31    13    39 1   
    32    13    40 1   
    33    14    15 1   
    34    14    41 1   
    35    14    42 1   
    36    15    16 1   
    37    15    43 1   
    38    15    44 1   
    39    16    17 1   
    40    16    45 1   
    41    16    46 1   
    42    17    18 1   
    43    17    47 1   
    44    17    48 1   
    45    18    19 1   
    46    18    49 1   
    47    18    50 1   
    48    19    20 1   
    49    19    21 1   
@<TRIPOS>SUBSTRUCTURE
     1 T24         1 TEMP              0 ****  ****    0 ROOT
