@<TRIPOS>MOLECULE
T24
   50    49     1     0     0
SMALL
bcc


@<TRIPOS>ATOM
      1 CAR          8.6680     1.9860     1.8220 c3         1 T24      -0.085100
      2 CAQ          7.3410     2.1590     1.0840 c3         1 T24      -0.044200
      3 CAP          7.4930     1.9420    -0.3900 c2         1 T24      -0.165200
      4 CAO          6.9830     0.9590    -1.1300 c2         1 T24      -0.158200
      5 CAN          6.1100    -0.1660    -0.6740 c3         1 T24      -0.079200
      6 CAM          4.7350    -0.1490    -1.3610 c3         1 T24       0.187300
      7 OAS          4.0490     1.0560    -1.1350 oh         1 T24      -0.584800
      8 CAL          3.9520    -1.3670    -0.9690 c2         1 T24      -0.223200
      9 CAK          2.7360    -1.3710    -0.4160 ce         1 T24      -0.101000
     10 CAJ          2.0510    -2.5950    -0.0320 ce         1 T24      -0.159000
     11 CAI          0.8480    -2.6890     0.5460 c2         1 T24      -0.128200
     12 CAH         -0.0860    -1.5820     0.9140 c3         1 T24      -0.051200
     13 CAG         -1.4590    -1.7490     0.2610 c3         1 T24      -0.072400
     14 CAF         -2.4560    -0.6840     0.7000 c3         1 T24      -0.076400
     15 CAE         -3.8420    -0.8700     0.0950 c3         1 T24      -0.074400
     16 CAD         -4.8380     0.1920     0.5440 c3         1 T24      -0.079400
     17 CAC         -6.2370    -0.0070    -0.0260 c3         1 T24      -0.054400
     18 CAB         -7.2150     1.0630     0.4320 c3         1 T24      -0.203400
     19 CAA         -8.6600     0.9300    -0.0790 c          1 T24       0.927600
     20 OAU         -9.4560     1.8180     0.2970 o          1 T24      -0.849300
     21 OAT         -8.9320    -0.0360    -0.8190 o          1 T24      -0.849300
     22 HAR1         9.4340     2.6530     1.4220 hc         1 T24       0.031367
     23 HAR2         8.5580     2.2070     2.8840 hc         1 T24       0.031367
     24 HAR3         9.0380     0.9650     1.7270 hc         1 T24       0.031367
     25 HAQ1         6.5950     1.4890     1.5120 hc         1 T24       0.043700
     26 HAQ2         6.9730     3.1750     1.2540 hc         1 T24       0.043700
     27 HAP          8.1190     2.6730    -0.8950 ha         1 T24       0.114000
     28 HAO          7.2140     0.9570    -2.1920 ha         1 T24       0.117000
     29 HAN1         6.5930    -1.1180    -0.9150 hc         1 T24       0.050200
     30 HAN2         5.9680    -0.1600     0.4100 hc         1 T24       0.050200
     31 HAM          4.9050    -0.1920    -2.4450 h1         1 T24       0.075700
     32 HOAS         4.0160     1.2170    -0.1850 ho         1 T24       0.401000
     33 HAL          4.4540    -2.3150    -1.1520 ha         1 T24       0.118000
     34 HAK          2.2300    -0.4280    -0.2400 ha         1 T24       0.131000
     35 HAJ          2.5860    -3.5180    -0.2340 ha         1 T24       0.113000
     36 HAI          0.4850    -3.6880     0.7730 ha         1 T24       0.115000
     37 HAH1        -0.2190    -1.5800     2.0020 hc         1 T24       0.045700
     38 HAH2         0.3280    -0.6040     0.6550 hc         1 T24       0.045700
     39 HAG1        -1.3470    -1.7260    -0.8280 hc         1 T24       0.038700
     40 HAG2        -1.8550    -2.7410     0.5060 hc         1 T24       0.038700
     41 HAF1        -2.5360    -0.6940     1.7920 hc         1 T24       0.032700
     42 HAF2        -2.0710     0.3060     0.4330 hc         1 T24       0.032700
     43 HAE1        -3.7670    -0.8610    -0.9980 hc         1 T24       0.034700
     44 HAE2        -4.2230    -1.8620     0.3640 hc         1 T24       0.034700
     45 HAD1        -4.8900     0.1960     1.6390 hc         1 T24       0.024200
     46 HAD2        -4.4640     1.1820     0.2590 hc         1 T24       0.024200
     47 HAC1        -6.1840    -0.0160    -1.1190 hc         1 T24       0.038200
     48 HAC2        -6.6080    -0.9950     0.2630 hc         1 T24       0.038200
     49 HAB1        -7.2420     1.0890     1.5280 hc         1 T24       0.014200
     50 HAB2        -6.8420     2.0520     0.1400 hc         1 T24       0.014200
@<TRIPOS>BOND
     1     1     2 1   
     2     1    22 1   
     3     1    23 1   
     4     1    24 1   
     5     2     3 1   
     6     2    25 1   
     7     2    26 1   
     8     3     4 2   
     9     3    27 1   
    10     4     5 1   
    11     4    28 1   
    12     5     6 1   
    13     5    29 1   
    14     5    30 1   
    15     6     7 1   
    16     6     8 1   
    17     6    31 1   
    18     7    32 1   
    19     8     9 2   
    20     8    33 1   
    21     9    10 1   
    22     9    34 1   
    23    10    11 2   
    24    10    35 1   
    25    11    12 1   
    26    11    36 1   
    27    12    13 1   
    28    12    37 1   
    29    12    38 1   
    30    13    14 1   
    31    13    39 1   
    32    13    40 1   
    33    14    15 1   
    34    14    41 1   
    35    14    42 1   
    36    15    16 1   
    37    15    43 1   
    38    15    44 1   
    39    16    17 1   
    40    16    45 1   
    41    16    46 1   
    42    17    18 1   
    43    17    47 1   
    44    17    48 1   
    45    18    19 1   
    46    18    49 1   
    47    18    50 1   
    48    19    20 1   
    49    19    21 1   
@<TRIPOS>SUBSTRUCTURE
     1 T24         1 TEMP              0 ****  ****    0 ROOT
