@<TRIPOS>MOLECULE
T25
   52    52     1     0     0
SMALL
bcc


@<TRIPOS>ATOM
      1 O1           8.8600    -0.1860     1.1600 o          1 T25      -0.848800
      2 C1           8.6560     0.4180     0.0880 c          1 T25       0.927600
      3 O2           9.4610     1.1750    -0.4950 o          1 T25      -0.848800
      4 C2           7.2990     0.2130    -0.6070 c3         1 T25      -0.203400
      5 C3           6.2460    -0.5460     0.1840 c3         1 T25      -0.054400
      6 C4           4.9470    -0.7320    -0.5920 c3         1 T25      -0.079400
      7 C5           3.8620    -1.4410     0.2080 c3         1 T25      -0.075400
      8 C6           2.5690    -1.6380    -0.5740 c3         1 T25      -0.076400
      9 C7           1.4390    -2.2130     0.2710 c3         1 T25      -0.072400
     10 C8           0.1530    -2.4290    -0.5300 c3         1 T25      -0.049200
     11 C9          -0.9680    -2.9280     0.3260 c2         1 T25      -0.151200
     12 C10         -2.1330    -2.3280     0.5690 c2         1 T25      -0.180200
     13 C11         -2.6100    -1.0230     0.0040 c3         1 T25      -0.033200
     14 C12         -3.8110    -1.2170    -0.8890 cx         1 T25       0.075100
     15 O3          -5.0920    -1.2640    -0.2730 op         1 T25      -0.400600
     16 C13         -4.8090    -0.1850    -1.1590 cx         1 T25       0.062100
     17 C14         -4.7720     1.2090    -0.6000 c3         1 T25      -0.066400
     18 C15         -6.1600     1.7380    -0.2480 c3         1 T25      -0.072400
     19 C16         -6.1350     3.2010     0.1740 c3         1 T25      -0.077400
     20 C17         -7.5050     3.7420     0.5630 c3         1 T25      -0.074400
     21 C18         -7.4700     5.2160     0.9400 c3         1 T25      -0.088100
     22 H21          6.9050     1.1930    -0.9000 hc         1 T25       0.014200
     23 H22          7.4870    -0.3060    -1.5560 hc         1 T25       0.014200
     24 H31          6.6360    -1.5240     0.4760 hc         1 T25       0.038200
     25 H32          6.0320    -0.0180     1.1190 hc         1 T25       0.038200
     26 H41          4.5710     0.2460    -0.9150 hc         1 T25       0.023700
     27 H42          5.1500    -1.2920    -1.5120 hc         1 T25       0.023700
     28 H51          4.2340    -2.4130     0.5490 hc         1 T25       0.034700
     29 H52          3.6500    -0.8640     1.1150 hc         1 T25       0.034700
     30 H61          2.2470    -0.6760    -0.9890 hc         1 T25       0.031700
     31 H62          2.7560    -2.2900    -1.4330 hc         1 T25       0.031700
     32 H71          1.7560    -3.1620     0.7170 hc         1 T25       0.038700
     33 H72          1.2330    -1.5370     1.1060 hc         1 T25       0.038700
     34 H81         -0.1190    -1.4990    -1.0320 hc         1 T25       0.042200
     35 H82          0.3500    -3.1600    -1.3230 hc         1 T25       0.042200
     36 H9          -0.7850    -3.8810     0.8160 ha         1 T25       0.116000
     37 H10         -2.8320    -2.8280     1.2330 ha         1 T25       0.121000
     38 H111        -2.8630    -0.3430     0.8210 hc         1 T25       0.058700
     39 H112        -1.8270    -0.5340    -0.5790 hc         1 T25       0.058700
     40 H12         -3.6620    -1.9720    -1.6620 h1         1 T25       0.081700
     41 H13         -5.3370    -0.2570    -2.1110 h1         1 T25       0.074700
     42 H141        -4.1240     1.2690     0.2770 hc         1 T25       0.051200
     43 H142        -4.3220     1.8530    -1.3620 hc         1 T25       0.051200
     44 H151        -6.8270     1.6210    -1.1080 hc         1 T25       0.043200
     45 H152        -6.5870     1.1290     0.5560 hc         1 T25       0.043200
     46 H161        -5.4450     3.3260     1.0150 hc         1 T25       0.037700
     47 H162        -5.7260     3.8060    -0.6440 hc         1 T25       0.037700
     48 H171        -8.2010     3.5950    -0.2690 hc         1 T25       0.036200
     49 H172        -7.9010     3.1540     1.3970 hc         1 T25       0.036200
     50 H181        -7.1200     5.8270     0.1050 hc         1 T25       0.030367
     51 H182        -8.4570     5.5830     1.2260 hc         1 T25       0.030367
     52 H183        -6.7950     5.3950     1.7800 hc         1 T25       0.030367
@<TRIPOS>BOND
     1     1     2 1   
     2     2     3 1   
     3     2     4 1   
     4     4     5 1   
     5     4    22 1   
     6     4    23 1   
     7     5     6 1   
     8     5    24 1   
     9     5    25 1   
    10     6     7 1   
    11     6    26 1   
    12     6    27 1   
    13     7     8 1   
    14     7    28 1   
    15     7    29 1   
    16     8     9 1   
    17     8    30 1   
    18     8    31 1   
    19     9    10 1   
    20     9    32 1   
    21     9    33 1   
    22    10    11 1   
    23    10    34 1   
    24    10    35 1   
    25    11    12 2   
    26    11    36 1   
    27    12    13 1   
    28    12    37 1   
    29    13    14 1   
    30    13    38 1   
    31    13    39 1   
    32    14    15 1   
    33    14    16 1   
    34    14    40 1   
    35    15    16 1   
    36    16    17 1   
    37    16    41 1   
    38    17    18 1   
    39    17    42 1   
    40    17    43 1   
    41    18    19 1   
    42    18    44 1   
    43    18    45 1   
    44    19    20 1   
    45    19    46 1   
    46    19    47 1   
    47    20    21 1   
    48    20    48 1   
    49    20    49 1   
    50    21    50 1   
    51    21    51 1   
    52    21    52 1   
@<TRIPOS>SUBSTRUCTURE
     1 T25         1 TEMP              0 ****  ****    0 ROOT
