@<TRIPOS>MOLECULE
T25
   52    52     1     0     0
SMALL
No Charge or Current Charge


@<TRIPOS>ATOM
      1 O1           8.7270     0.6470     0.2400 o          1 T25      -0.743500
      2 C1           7.7840     1.3640    -0.0580 c          1 T25       0.717000
      3 O2           7.6670     2.5190     0.3220 o          1 T25      -0.743500
      4 C2           6.6520     0.7600    -0.9100 c3         1 T25      -0.203400
      5 C3           5.5820     0.1130     0.0040 c3         1 T25      -0.054400
      6 C4           4.4100    -0.5170    -0.7820 c3         1 T25      -0.079400
      7 C5           3.3450    -1.1610     0.1310 c3         1 T25      -0.075400
      8 C6           2.1750    -1.7910    -0.6550 c3         1 T25      -0.076400
      9 C7           1.1090    -2.4340     0.2590 c3         1 T25      -0.072400
     10 C8          -0.0620    -3.0620    -0.5250 c3         1 T25      -0.049200
     11 C9          -1.1000    -3.6780     0.3950 c2         1 T25      -0.201200
     12 C10         -2.2300    -3.0990     0.8360 c2         1 T25      -0.230200
     13 C11         -2.7040    -1.6850     0.5460 c3         1 T25      -0.033200
     14 C12         -3.7310    -1.6720    -0.5840 cx         1 T25       0.098300
     15 O3          -5.1250    -1.5930    -0.2000 op         1 T25      -0.447000
     16 C13         -4.5640    -0.4570    -0.8980 cx         1 T25       0.085300
     17 C14         -4.4320     0.8430    -0.1060 c3         1 T25      -0.066400
     18 C15         -5.5260     1.8730    -0.4630 c3         1 T25      -0.072400
     19 C16         -5.4010     3.1900     0.3340 c3         1 T25      -0.077400
     20 C17         -6.4950     4.2200    -0.0230 c3         1 T25      -0.074400
     21 C18         -6.3710     5.5330     0.7720 c3         1 T25      -0.088100
     22 H21          6.1320     1.5460    -1.4710 hc         1 T25       0.014200
     23 H22          7.0370    -0.0510    -1.5410 hc         1 T25       0.014200
     24 H31          6.0560    -0.6590     0.6230 hc         1 T25       0.038200
     25 H32          5.1870     0.8730     0.6900 hc         1 T25       0.038200
     26 H41          3.9350     0.2550    -1.4000 hc         1 T25       0.023700
     27 H42          4.8040    -1.2780    -1.4670 hc         1 T25       0.023700
     28 H51          3.8200    -1.9330     0.7500 hc         1 T25       0.034700
     29 H52          2.9500    -0.4000     0.8160 hc         1 T25       0.034700
     30 H61          1.7000    -1.0190    -1.2740 hc         1 T25       0.031700
     31 H62          2.5690    -2.5520    -1.3400 hc         1 T25       0.031700
     32 H71          1.5810    -3.2070     0.8780 hc         1 T25       0.038700
     33 H72          0.7130    -1.6730     0.9430 hc         1 T25       0.038700
     34 H81         -0.5170    -2.2960    -1.1640 hc         1 T25       0.042200
     35 H82          0.3270    -3.8300    -1.2060 hc         1 T25       0.042200
     36 H9          -0.8710    -4.7050     0.6890 ha         1 T25       0.166000
     37 H10         -2.9040    -3.6600     1.4890 ha         1 T25       0.171000
     38 H111        -3.1290    -1.2510     1.4590 hc         1 T25       0.058700
     39 H112        -1.8620    -1.0390     0.2720 hc         1 T25       0.058700
     40 H12         -3.5080    -2.3500    -1.4080 h1         1 T25       0.081700
     41 H13         -4.8900    -0.3320    -1.9310 h1         1 T25       0.074700
     42 H141        -4.4780     0.6390     0.9710 hc         1 T25       0.051200
     43 H142        -3.4480     1.2860    -0.3030 hc         1 T25       0.051200
     44 H151        -5.4760     2.0960    -1.5360 hc         1 T25       0.043200
     45 H152        -6.5120     1.4290    -0.2740 hc         1 T25       0.043200
     46 H161        -5.4530     2.9680     1.4080 hc         1 T25       0.037700
     47 H162        -4.4150     3.6330     0.1460 hc         1 T25       0.037700
     48 H171        -6.4450     4.4460    -1.0960 hc         1 T25       0.036200
     49 H172        -7.4830     3.7810     0.1650 hc         1 T25       0.036200
     50 H181        -5.4050     6.0150     0.5770 hc         1 T25       0.030367
     51 H182        -7.1670     6.2310     0.4850 hc         1 T25       0.030367
     52 H183        -6.4530     5.3440     1.8490 hc         1 T25       0.030367
@<TRIPOS>BOND
     1     1     2 1   
     2     2     3 1   
     3     2     4 1   
     4     4     5 1   
     5     4    22 1   
     6     4    23 1   
     7     5     6 1   
     8     5    24 1   
     9     5    25 1   
    10     6     7 1   
    11     6    26 1   
    12     6    27 1   
    13     7     8 1   
    14     7    28 1   
    15     7    29 1   
    16     8     9 1   
    17     8    30 1   
    18     8    31 1   
    19     9    10 1   
    20     9    32 1   
    21     9    33 1   
    22    10    11 1   
    23    10    34 1   
    24    10    35 1   
    25    11    12 2   
    26    11    36 1   
    27    12    13 1   
    28    12    37 1   
    29    13    14 1   
    30    13    38 1   
    31    13    39 1   
    32    14    15 1   
    33    14    16 1   
    34    14    40 1   
    35    15    16 1   
    36    16    17 1   
    37    16    41 1   
    38    17    18 1   
    39    17    42 1   
    40    17    43 1   
    41    18    19 1   
    42    18    44 1   
    43    18    45 1   
    44    19    20 1   
    45    19    46 1   
    46    19    47 1   
    47    20    21 1   
    48    20    48 1   
    49    20    49 1   
    50    21    50 1   
    51    21    51 1   
    52    21    52 1   
@<TRIPOS>SUBSTRUCTURE
     1 T25         1 TEMP              0 ****  ****    0 ROOT
