@<TRIPOS>MOLECULE
T26
   53    55     1     0     0
SMALL
bcc


@<TRIPOS>ATOM
      1 OE2        -10.3520    -1.6880     0.0210 o          1 T26      -0.866300
      2 CD          -9.3390    -2.4110    -0.0520 c          1 T26       0.922600
      3 OE1         -9.3040    -3.5880    -0.4710 o          1 T26      -0.866300
      4 CG          -7.9950    -1.8230     0.4100 c3         1 T26      -0.201400
      5 CB          -8.0290    -0.3770     0.8790 c3         1 T26      -0.053400
      6 C           -6.8060     1.5350     2.0210 c          1 T26       0.926600
      7 OXT         -7.5210     1.6000     3.0410 o          1 T26      -0.847300
      8 O           -6.2110     2.4700     1.4590 o          1 T26      -0.847300
      9 N           -5.6950     0.0670     0.3430 ns         1 T26      -0.480900
     10 CAU         -4.3810    -0.0290     0.5800 c          1 T26       0.660700
     11 OBC         -3.9130    -0.2020     1.7000 o          1 T26      -0.643100
     12 CAT         -3.4850     0.0560    -0.6210 ca         1 T26      -0.069600
     13 CAS         -2.1520     0.3660    -0.4000 ca         1 T26      -0.146000
     14 CAQ         -3.9340    -0.1880    -1.9200 ca         1 T26      -0.135000
     15 CAR         -1.2380     0.4630    -1.4580 ca         1 T26       0.133600
     16 CAO         -3.0370    -0.0890    -2.9710 ca         1 T26      -0.115000
     17 CAP         -1.7070     0.2430    -2.7580 ca         1 T26      -0.209000
     18 CAA          2.4210     1.1450    -1.6460 ca         1 T26      -0.048300
     19 CAN          1.0220     1.1200    -2.1970 c3         1 T26       0.255100
     20 NAY          0.0800     0.7370    -1.1750 nu         1 T26      -0.769600
     21 CAC          2.9170     0.0560    -0.9290 ca         1 T26      -0.125000
     22 CAE          4.2080     0.0550    -0.4400 ca         1 T26      -0.091000
     23 CAB          3.2560     2.2350    -1.8630 ca         1 T26      -0.125000
     24 CAG          4.5530     2.2360    -1.3800 ca         1 T26      -0.091000
     25 CAF          5.0550     1.1510    -0.6520 ca         1 T26      -0.113800
     26 CAH          6.4200     1.2500    -0.1780 ce         1 T26       0.062800
     27 CAI          7.1450     0.4340     0.6050 cd         1 T26      -0.187600
     28 SBG          6.6870    -1.0760     1.3690 ss         1 T26      -0.018200
     29 CAL          8.2510    -1.2610     2.1170 cs         1 T26       0.393000
     30 SBH          8.6460    -2.5260     3.0700 s          1 T26      -0.434400
     31 NAX          9.0480    -0.2240     1.7800 ns         1 T26      -0.534500
     32 CAK          8.5440     0.7630     0.9540 c          1 T26       0.715700
     33 CA          -6.6800     0.1190     1.4000 c3         1 T26      -0.052300
     34 OBE          9.1740     1.7280     0.5960 o          1 T26      -0.571500
     35 HG1C        -7.6060    -2.4550     1.2180 hc         1 T26       0.010200
     36 HG2C        -7.2750    -1.9420    -0.4060 hc         1 T26       0.010200
     37 HB1C        -8.3710     0.2750     0.0680 hc         1 T26       0.050200
     38 HB2C        -8.7550    -0.2650     1.6830 hc         1 T26       0.050200
     39 HA          -6.3510    -0.5610     2.1900 h1         1 T26       0.060700
     40 H           -5.9900     0.4030    -0.5590 hn         1 T26       0.298500
     41 HAQ         -4.9580    -0.4720    -2.1260 ha         1 T26       0.153000
     42 HAS         -1.8080     0.5400     0.6120 ha         1 T26       0.152000
     43 HAO         -3.3760    -0.2740    -3.9820 ha         1 T26       0.115000
     44 HAP         -1.0450     0.3230    -3.6100 ha         1 T26       0.105000
     45 HAY          0.2330     1.1790    -0.2820 hn         1 T26       0.412800
     46 HAC          2.2840    -0.8050    -0.7540 ha         1 T26       0.151500
     47 HAB          2.8900     3.0940    -2.4120 ha         1 T26       0.151500
     48 HAN1         0.7820     2.0910    -2.6500 h1         1 T26       0.043200
     49 HAN2         0.9900     0.3850    -3.0060 h1         1 T26       0.043200
     50 HAE          4.5400    -0.8260     0.0930 ha         1 T26       0.133000
     51 HAG          5.1880     3.0940    -1.5610 ha         1 T26       0.133000
     52 HAH          6.9480     2.1410    -0.5040 ha         1 T26       0.144000
     53 HAX          9.9970    -0.1750     2.1300 hn         1 T26       0.354500
@<TRIPOS>BOND
     1     1     2 1   
     2     2     3 1   
     3     2     4 1   
     4     4     5 1   
     5     4    35 1   
     6     4    36 1   
     7     5    33 1   
     8     5    37 1   
     9     5    38 1   
    10     6     7 1   
    11     6     8 1   
    12     6    33 1   
    13     9    10 1   
    14     9    33 1   
    15     9    40 1   
    16    10    11 2   
    17    10    12 1   
    18    12    13 ar  
    19    12    14 ar  
    20    13    15 ar  
    21    13    42 1   
    22    14    16 ar  
    23    14    41 1   
    24    15    17 ar  
    25    15    20 1   
    26    16    17 ar  
    27    16    43 1   
    28    17    44 1   
    29    18    19 1   
    30    18    21 ar  
    31    18    23 ar  
    32    19    20 1   
    33    19    48 1   
    34    19    49 1   
    35    20    45 1   
    36    21    22 ar  
    37    21    46 1   
    38    22    25 ar  
    39    22    50 1   
    40    23    24 ar  
    41    23    47 1   
    42    24    25 ar  
    43    24    51 1   
    44    25    26 1   
    45    26    27 2   
    46    26    52 1   
    47    27    28 1   
    48    27    32 1   
    49    28    29 1   
    50    29    30 2   
    51    29    31 1   
    52    31    32 1   
    53    31    53 1   
    54    32    34 2   
    55    33    39 1   
@<TRIPOS>SUBSTRUCTURE
     1 T26         1 TEMP              0 ****  ****    0 ROOT
