@<TRIPOS>MOLECULE
T26
   53    55     1     0     0
SMALL
No Charge or Current Charge


@<TRIPOS>ATOM
      1 OE2         -7.6050    -3.6870     2.7490 o          1 T26      -0.761000
      2 CD          -7.1360    -3.3720     1.6660 c          1 T26       0.712000
      3 OE1         -7.2210    -4.0700     0.6680 o          1 T26      -0.761000
      4 CG          -6.4600    -1.9940     1.5380 c3         1 T26      -0.201400
      5 CB          -7.5100    -0.9190     1.1490 c3         1 T26      -0.053400
      6 C           -8.1130     1.5570     0.8480 c          1 T26       0.716000
      7 OXT         -8.4470     2.2880     1.7710 o          1 T26      -0.742000
      8 O           -8.5710     1.6570    -0.2830 o          1 T26      -0.742000
      9 N           -5.9060     0.7000     0.0720 ns         1 T26      -0.413900
     10 CAU         -4.5430     0.6720     0.3030 c          1 T26       0.593700
     11 OBC         -4.0870     0.5420     1.4340 o          1 T26      -0.643100
     12 CAT         -3.6450     0.8230    -0.9160 ca         1 T26      -0.069600
     13 CAS         -2.2400     0.8210    -0.7500 ca         1 T26      -0.128000
     14 CAQ         -4.1660     0.9640    -2.2260 ca         1 T26      -0.117000
     15 CAR         -1.3750     0.9570    -1.8480 ca         1 T26       0.272000
     16 CAO         -3.3030     1.1000    -3.3260 ca         1 T26      -0.097000
     17 CAP         -1.9120     1.0970    -3.1390 ca         1 T26      -0.191000
     18 CAA          2.4410     1.0260    -1.9820 ca         1 T26      -0.048300
     19 CAN          1.0690     1.0810    -2.6430 c3         1 T26       0.255100
     20 NAY          0.0060     0.9500    -1.6350 nu         1 T26      -0.963200
     21 CAC          3.1060    -0.2050    -1.8210 ca         1 T26      -0.107000
     22 CAE          4.3720    -0.2560    -1.2130 ca         1 T26      -0.073000
     23 CAB          3.0620     2.2060    -1.5290 ca         1 T26      -0.107000
     24 CAG          4.3290     2.1550    -0.9220 ca         1 T26      -0.073000
     25 CAF          4.9880     0.9230    -0.7480 ca         1 T26      -0.113800
     26 CAH          6.3360     0.8980    -0.1120 ce         1 T26       0.012800
     27 CAI          6.8510     0.0280     0.8270 cd         1 T26      -0.187600
     28 SBG          5.9460    -1.3260     1.5090 ss         1 T26      -0.018200
     29 CAL          7.2960    -1.7970     2.5650 cs         1 T26       0.326000
     30 SBH          7.3330    -3.0730     3.6420 s          1 T26      -0.434400
     31 NAX          8.3000    -0.9070     2.3290 ns         1 T26      -0.400500
     32 CAK          8.1890     0.1130     1.4330 c          1 T26       0.573200
     33 CA          -6.9640     0.5330     1.0980 c3         1 T26      -0.052300
     34 OBE          9.0600     0.9340     1.1960 o          1 T26      -0.496000
     35 HG1C        -6.0500    -1.6760     2.5050 hc         1 T26       0.010200
     36 HG2C        -5.7210    -2.0070     0.7270 hc         1 T26       0.010200
     37 HB1C        -7.9470    -1.1760     0.1760 hc         1 T26       0.050200
     38 HB2C        -8.3310    -0.9520     1.8770 hc         1 T26       0.050200
     39 HA          -6.5380     0.7740     2.0800 h1         1 T26       0.060700
     40 H           -6.2030     0.8450    -0.8840 hn         1 T26       0.298500
     41 HAQ         -5.2370     0.9700    -2.4130 ha         1 T26       0.135000
     42 HAS         -1.8140     0.7130     0.2430 ha         1 T26       0.134000
     43 HAO         -3.7150     1.2080    -4.3280 ha         1 T26       0.097000
     44 HAP         -1.2630     1.2040    -4.0030 ha         1 T26       0.087000
     45 HAY          0.3130     0.8430    -0.6670 hn         1 T26       0.468000
     46 HAC          2.6410    -1.1240    -2.1710 ha         1 T26       0.133500
     47 HAB          2.5610     3.1640    -1.6480 ha         1 T26       0.133500
     48 HAN1         0.9640     2.0340    -3.1810 h1         1 T26       0.043200
     49 HAN2         0.9900     0.2720    -3.3830 h1         1 T26       0.043200
     50 HAE          4.8770    -1.2140    -1.1190 ha         1 T26       0.115000
     51 HAG          4.7940     3.0760    -0.5770 ha         1 T26       0.115000
     52 HAH          6.9940     1.7200    -0.4010 ha         1 T26       0.194000
     53 HAX          9.1680    -0.9960     2.8380 hn         1 T26       0.354500
@<TRIPOS>BOND
     1     1     2 1   
     2     2     3 1   
     3     2     4 1   
     4     4     5 1   
     5     4    35 1   
     6     4    36 1   
     7     5    33 1   
     8     5    37 1   
     9     5    38 1   
    10     6     7 1   
    11     6     8 1   
    12     6    33 1   
    13     9    10 1   
    14     9    33 1   
    15     9    40 1   
    16    10    11 2   
    17    10    12 1   
    18    12    13 ar  
    19    12    14 ar  
    20    13    15 ar  
    21    13    42 1   
    22    14    16 ar  
    23    14    41 1   
    24    15    17 ar  
    25    15    20 1   
    26    16    17 ar  
    27    16    43 1   
    28    17    44 1   
    29    18    19 1   
    30    18    21 ar  
    31    18    23 ar  
    32    19    20 1   
    33    19    48 1   
    34    19    49 1   
    35    20    45 1   
    36    21    22 ar  
    37    21    46 1   
    38    22    25 ar  
    39    22    50 1   
    40    23    24 ar  
    41    23    47 1   
    42    24    25 ar  
    43    24    51 1   
    44    25    26 1   
    45    26    27 2   
    46    26    52 1   
    47    27    28 1   
    48    27    32 1   
    49    28    29 1   
    50    29    30 2   
    51    29    31 1   
    52    31    32 1   
    53    31    53 1   
    54    32    34 2   
    55    33    39 1   
@<TRIPOS>SUBSTRUCTURE
     1 T26         1 TEMP              0 ****  ****    0 ROOT
