@<TRIPOS>MOLECULE
T27
   46    48     1     0     0
SMALL
abcg2


@<TRIPOS>ATOM
      1 C1           3.2000     0.2670     1.0410 ca         1 T27      -0.072300
      2 N2          -2.0510    -1.1350    -0.1320 nb         1 T27      -0.260000
      3 C3           5.2690     0.2510    -0.2250 ca         1 T27      -0.062800
      4 C4           4.6290     0.9260    -1.2630 ca         1 T27      -0.088500
      5 C5           3.2850     1.2670    -1.1860 ca         1 T27      -0.072300
      6 C6           2.5800     0.9280    -0.0290 ca         1 T27       0.278000
      7 C7           2.4490    -0.0450     2.3000 c3         1 T27      -0.050300
      8 C2           4.5390    -0.0720     0.9200 ca         1 T27      -0.088500
      9 C8           2.6070     1.9780    -2.3190 c3         1 T27      -0.050300
     10 N1           1.2220     1.3000     0.0700 nu         1 T27      -0.961900
     11 C9          -0.8320    -1.6640    -0.2570 ca         1 T27       0.165900
     12 C10          0.3290    -0.9350    -0.2120 ca         1 T27      -0.320000
     13 C11          0.1750     0.4500    -0.0110 ca         1 T27       0.426900
     14 N3          -1.0330     0.9930     0.1030 nb         1 T27      -0.331000
     15 C12         -2.0810     0.1770     0.0340 ca         1 T27       0.419900
     16 N4          -3.2840     0.8260     0.1520 nu         1 T27      -0.929900
     17 C13         -7.2860    -0.3620     0.1600 ca         1 T27      -0.064000
     18 C14         -6.2910    -1.3320     0.0440 ca         1 T27      -0.038000
     19 C15         -4.9540    -0.9830     0.0350 ca         1 T27      -0.169000
     20 C16         -4.5800     0.3640     0.1440 ca         1 T27       0.351000
     21 C17         -5.5900     1.3350     0.2610 ca         1 T27      -0.169000
     22 C18         -6.9190     0.9820     0.2700 ca         1 T27      -0.038000
     23 N5          -9.7710    -1.0380     0.1720 n1         1 T27      -0.465000
     24 C19         -8.6580    -0.7360     0.1670 cg         1 T27       0.333000
     25 C20          7.4490    -0.7380     0.4870 ce         1 T27      -0.109700
     26 C21          6.6790    -0.0740    -0.3890 cf         1 T27      -0.099200
     27 N6           9.9320    -1.2000     0.0020 n1         1 T27      -0.448000
     28 C22          8.8170    -0.9880     0.2110 cg         1 T27       0.271700
     29 H4           5.1880     1.1860    -2.1540 ha         1 T27       0.120500
     30 H7           1.7060    -0.8290     2.1480 hc         1 T27       0.050367
     31 H7A          3.1280    -0.3860     3.0800 hc         1 T27       0.050367
     32 H7B          1.9180     0.8320     2.6720 hc         1 T27       0.050367
     33 H2           5.0180    -0.5780     1.7490 ha         1 T27       0.120500
     34 H8           1.7140     1.4440    -2.6450 hc         1 T27       0.050367
     35 H8A          2.2920     2.9830    -2.0320 hc         1 T27       0.050367
     36 H8B          3.2740     2.0730    -3.1730 hc         1 T27       0.050367
     37 HN1          0.9930     2.2840     0.0680 hn         1 T27       0.514000
     38 H9          -0.7910    -2.7370    -0.4070 h4         1 T27       0.023100
     39 H10          1.2920    -1.4050    -0.3390 ha         1 T27       0.143000
     40 HN4         -3.1800     1.8250     0.2570 hn         1 T27       0.510000
     41 H14         -6.5610    -2.3760    -0.0410 ha         1 T27       0.124000
     42 H15         -4.2030    -1.7490    -0.0560 ha         1 T27       0.137000
     43 H17         -5.3210     2.3800     0.3460 ha         1 T27       0.137000
     44 H18         -7.6760     1.7480     0.3600 ha         1 T27       0.124000
     45 H20          7.0840    -1.1130     1.4340 ha         1 T27       0.202000
     46 H21          7.1300     0.2640    -1.3160 ha         1 T27       0.185000
@<TRIPOS>BOND
     1     1     6 ar  
     2     1     7 1   
     3     1     8 ar  
     4     2    11 ar  
     5     2    15 ar  
     6     3     4 ar  
     7     3     8 ar  
     8     3    26 1   
     9     4     5 ar  
    10     4    29 1   
    11     5     6 ar  
    12     5     9 1   
    13     6    10 1   
    14     7    30 1   
    15     7    31 1   
    16     7    32 1   
    17     8    33 1   
    18     9    34 1   
    19     9    35 1   
    20     9    36 1   
    21    10    13 1   
    22    10    37 1   
    23    11    12 ar  
    24    11    38 1   
    25    12    13 ar  
    26    12    39 1   
    27    13    14 ar  
    28    14    15 ar  
    29    15    16 1   
    30    16    20 1   
    31    16    40 1   
    32    17    18 ar  
    33    17    22 ar  
    34    17    24 1   
    35    18    19 ar  
    36    18    41 1   
    37    19    20 ar  
    38    19    42 1   
    39    20    21 ar  
    40    21    22 ar  
    41    21    43 1   
    42    22    44 1   
    43    23    24 3   
    44    25    26 2   
    45    25    28 1   
    46    25    45 1   
    47    26    46 1   
    48    27    28 3   
@<TRIPOS>SUBSTRUCTURE
     1 T27         1 TEMP              0 ****  ****    0 ROOT
