@<TRIPOS>MOLECULE
T27
   46    48     1     0     0
SMALL
No Charge or Current Charge


@<TRIPOS>ATOM
      1 C1           3.2220     0.2310     0.9080 ca         1 T27      -0.072300
      2 N2          -2.1590    -1.2560     0.1690 nb         1 T27      -0.260000
      3 C3           5.3920     0.3380    -0.2310 ca         1 T27      -0.062800
      4 C4           4.7670     0.9450    -1.3340 ca         1 T27      -0.088500
      5 C5           3.3800     1.1930    -1.3390 ca         1 T27      -0.072300
      6 C6           2.5940     0.8200    -0.2220 ca         1 T27       0.278000
      7 C7           2.4550    -0.1210     2.1850 c3         1 T27      -0.050300
      8 C2           4.6100    -0.0110     0.8860 ca         1 T27      -0.088500
      9 C8           2.7510     1.8440    -2.5720 c3         1 T27      -0.050300
     10 N1           1.2130     1.0670    -0.2460 nu         1 T27      -0.961900
     11 C9          -0.9640    -1.8740     0.1170 ca         1 T27       0.165900
     12 C10          0.2240    -1.1440    -0.0230 ca         1 T27      -0.320000
     13 C11          0.1150     0.2470    -0.0920 ca         1 T27       0.426900
     14 N3          -1.0670     0.8710    -0.0580 nb         1 T27      -0.331000
     15 C12         -2.1460     0.0860     0.0650 ca         1 T27       0.419900
     16 N4          -3.3440     0.7760     0.1380 nu         1 T27      -0.929900
     17 C13         -7.4450    -0.2370     0.2160 ca         1 T27      -0.064000
     18 C14         -6.5270    -1.1050    -0.4050 ca         1 T27      -0.038000
     19 C15         -5.1590    -0.7800    -0.4350 ca         1 T27      -0.169000
     20 C16         -4.6920     0.4080     0.1590 ca         1 T27       0.351000
     21 C17         -5.6150     1.2780     0.7620 ca         1 T27      -0.169000
     22 C18         -6.9840     0.9590     0.7980 ca         1 T27      -0.038000
     23 N5          -9.9820    -0.8240     0.2730 n1         1 T27      -0.465000
     24 C19         -8.8430    -0.5660     0.2490 cg         1 T27       0.333000
     25 C20          7.6610    -0.4780     0.6680 ce         1 T27      -0.109700
     26 C21          6.8500     0.0930    -0.2690 cf         1 T27      -0.099200
     27 N6          10.2140    -0.7840     0.3300 n1         1 T27      -0.448000
     28 C22          9.0680    -0.6560     0.5040 cg         1 T27       0.271700
     29 H4           5.3630     1.2260    -2.2000 ha         1 T27       0.120500
     30 H7           2.0620    -1.1430     2.1430 hc         1 T27       0.050367
     31 H7A          3.1020    -0.0570     3.0680 hc         1 T27       0.050367
     32 H7B          1.6150     0.5600     2.3630 hc         1 T27       0.050367
     33 H2           5.0750    -0.4660     1.7560 ha         1 T27       0.120500
     34 H8           1.9440     1.2230    -2.9780 hc         1 T27       0.050367
     35 H8A          2.3320     2.8280    -2.3280 hc         1 T27       0.050367
     36 H8B          3.4820     1.9920    -3.3750 hc         1 T27       0.050367
     37 HN1          0.9580     1.9730    -0.6360 hn         1 T27       0.514000
     38 H9          -0.9630    -2.9610     0.1840 h4         1 T27       0.023100
     39 H10          1.1840    -1.6450    -0.0830 ha         1 T27       0.143000
     40 HN4         -3.1940     1.7730     0.2800 hn         1 T27       0.510000
     41 H14         -6.8720    -2.0270    -0.8690 ha         1 T27       0.124000
     42 H15         -4.4730    -1.4500    -0.9410 ha         1 T27       0.137000
     43 H17         -5.2710     2.2030     1.2160 ha         1 T27       0.137000
     44 H18         -7.6840     1.6430     1.2770 ha         1 T27       0.124000
     45 H20          7.2560    -0.8330     1.6130 ha         1 T27       0.202000
     46 H21          7.3300     0.4250    -1.1930 ha         1 T27       0.185000
@<TRIPOS>BOND
     1     1     6 ar  
     2     1     7 1   
     3     1     8 ar  
     4     2    11 ar  
     5     2    15 ar  
     6     3     4 ar  
     7     3     8 ar  
     8     3    26 1   
     9     4     5 ar  
    10     4    29 1   
    11     5     6 ar  
    12     5     9 1   
    13     6    10 1   
    14     7    30 1   
    15     7    31 1   
    16     7    32 1   
    17     8    33 1   
    18     9    34 1   
    19     9    35 1   
    20     9    36 1   
    21    10    13 1   
    22    10    37 1   
    23    11    12 ar  
    24    11    38 1   
    25    12    13 ar  
    26    12    39 1   
    27    13    14 ar  
    28    14    15 ar  
    29    15    16 1   
    30    16    20 1   
    31    16    40 1   
    32    17    18 ar  
    33    17    22 ar  
    34    17    24 1   
    35    18    19 ar  
    36    18    41 1   
    37    19    20 ar  
    38    19    42 1   
    39    20    21 ar  
    40    21    22 ar  
    41    21    43 1   
    42    22    44 1   
    43    23    24 3   
    44    25    26 2   
    45    25    28 1   
    46    25    45 1   
    47    26    46 1   
    48    27    28 3   
@<TRIPOS>SUBSTRUCTURE
     1 T27         1 TEMP              0 ****  ****    0 ROOT
