@<TRIPOS>MOLECULE
T28
   33    36     1     0     0
SMALL
No Charge or Current Charge


@<TRIPOS>ATOM
      1 Br1         -3.9780    -1.2700     0.1160 br         1 T28      -0.111100
      2 C12         -2.6400     0.0800    -0.0940 ca         1 T28      -0.044900
      3 C6          -1.2770    -0.2570     0.0520 ca         1 T28      -0.020000
      4 C2          -0.3340     0.7670    -0.1130 ca         1 T28      -0.057800
      5 C5          -0.6980     2.0560    -0.3970 ca         1 T28      -0.049200
      6 C11         -2.0440     2.4150    -0.5480 ca         1 T28      -0.124000
      7 C17         -3.0230     1.4090    -0.3940 ca         1 T28      -0.072000
      8 C1           1.0950     0.7610    -0.0180 cc         1 T28      -0.228000
      9 C4           1.5420     2.0410    -0.3140 cd         1 T28      -0.018300
     10 N9           0.4180     2.8760    -0.5150 na         1 T28      -0.208700
     11 C3           2.0390    -0.3520     0.0760 ca         1 T28       0.266800
     12 N8           1.7190    -1.5140    -0.5290 nb         1 T28      -0.246000
     13 C15          2.6180    -2.5030    -0.4370 ca         1 T28       0.369900
     14 N20          2.2940    -3.6680    -1.0530 nv         1 T28      -1.052900
     15 N19          3.7990    -2.4790     0.1960 nb         1 T28      -0.245000
     16 C13          4.1150    -1.3260     0.8160 ca         1 T28       0.149900
     17 C7           3.2550    -0.2120     0.7880 ca         1 T28      -0.246300
     18 C14          3.5860     1.0570     1.5730 c3         1 T28      -0.005100
     19 C16          3.8840     2.3000     0.7000 c3         1 T28      -0.060400
     20 C10          2.9670     2.4880    -0.5320 c3         1 T28      -0.025200
     21 H6          -0.9730    -1.2730     0.2880 ha         1 T28       0.144000
     22 H11         -2.3300     3.4380    -0.7780 ha         1 T28       0.117000
     23 H17         -4.0760     1.6570    -0.5050 ha         1 T28       0.127000
     24 H1           0.4290     3.8590    -0.7640 hn         1 T28       0.352000
     25 H201         1.3360    -3.8050    -1.3660 hn         1 T28       0.488000
     26 H202         2.8340    -4.5040    -0.8410 hn         1 T28       0.488000
     27 H13          5.0620    -1.3020     1.3530 h4         1 T28       0.016100
     28 H142         2.7440     1.2950     2.2360 hc         1 T28       0.048700
     29 H141         4.4400     0.8860     2.2400 hc         1 T28       0.048700
     30 H162         3.8120     3.1910     1.3370 hc         1 T28       0.043200
     31 H161         4.9240     2.2540     0.3530 hc         1 T28       0.043200
     32 H102         3.3870     1.9130    -1.3660 hc         1 T28       0.056200
     33 H101         3.0010     3.5390    -0.8460 hc         1 T28       0.056200
@<TRIPOS>BOND
     1     1     2 1   
     2     2     3 ar  
     3     2     7 ar  
     4     3     4 ar  
     5     3    21 1   
     6     4     5 ar  
     7     4     8 1   
     8     5     6 ar  
     9     5    10 1   
    10     6     7 ar  
    11     6    22 1   
    12     7    23 1   
    13     8     9 2   
    14     8    11 1   
    15     9    10 1   
    16     9    20 1   
    17    10    24 1   
    18    11    12 ar  
    19    11    17 ar  
    20    12    13 ar  
    21    13    14 1   
    22    13    15 ar  
    23    14    25 1   
    24    14    26 1   
    25    15    16 ar  
    26    16    17 ar  
    27    16    27 1   
    28    17    18 1   
    29    18    19 1   
    30    18    28 1   
    31    18    29 1   
    32    19    20 1   
    33    19    30 1   
    34    19    31 1   
    35    20    32 1   
    36    20    33 1   
@<TRIPOS>SUBSTRUCTURE
     1 T28         1 TEMP              0 ****  ****    0 ROOT
