@<TRIPOS>MOLECULE
T28
   33    36     1     0     0
SMALL
bcc


@<TRIPOS>ATOM
      1 BR1         -3.9300    -1.2180    -0.0080 br         1 T28      -0.111100
      2 C12         -2.5830     0.1070    -0.1570 ca         1 T28      -0.044900
      3 C6          -1.2590    -0.2750    -0.0800 ca         1 T28      -0.038000
      4 C2          -0.2880     0.7230    -0.1970 ca         1 T28      -0.057800
      5 C5          -0.6880     2.0620    -0.3900 ca         1 T28      -0.049200
      6 C11         -2.0250     2.4320    -0.4650 ca         1 T28      -0.142000
      7 C17         -2.9790     1.4390    -0.3480 ca         1 T28      -0.090000
      8 C1           1.1430     0.7310    -0.1420 cc         1 T28      -0.228000
      9 C4           1.5450     2.0370    -0.3300 cd         1 T28      -0.018300
     10 N9           0.4480     2.8220    -0.4730 na         1 T28      -0.158400
     11 C3           2.0670    -0.3750     0.0210 ca         1 T28       0.595100
     12 N8           1.7280    -1.5520    -0.4960 nb         1 T28      -0.772000
     13 C15          2.6060    -2.5490    -0.3820 ca         1 T28       0.895900
     14 N20          2.2710    -3.7360    -0.9410 nv         1 T28      -0.942500
     15 N19          3.8030    -2.4650     0.2030 nb         1 T28      -0.771000
     16 C13          4.1000    -1.2960     0.7510 ca         1 T28       0.478200
     17 C7           3.2740    -0.1860     0.7160 ca         1 T28      -0.376900
     18 C14          3.5610     1.0600     1.5040 c3         1 T28      -0.005100
     19 C16          3.8510     2.3320     0.7070 c3         1 T28      -0.060400
     20 C10          2.9380     2.5320    -0.5100 c3         1 T28      -0.025200
     21 H6          -0.9700    -1.3080     0.0580 ha         1 T28       0.162000
     22 H11         -2.3210     3.4630    -0.6140 ha         1 T28       0.135000
     23 H17         -4.0270     1.6970    -0.4080 ha         1 T28       0.145000
     24 H1           0.4720     3.8150    -0.6410 hn         1 T28       0.301700
     25 H201         1.3050    -3.8880    -1.1770 hn         1 T28       0.432800
     26 H202         2.7940    -4.5490    -0.6660 hn         1 T28       0.432800
     27 H13          5.0540    -1.2400     1.2700 h4         1 T28       0.016100
     28 H142         2.7000     1.2480     2.1540 hc         1 T28       0.048700
     29 H141         4.4020     0.8720     2.1750 hc         1 T28       0.048700
     30 H162         3.7580     3.1830     1.3840 hc         1 T28       0.043200
     31 H161         4.8830     2.3260     0.3520 hc         1 T28       0.043200
     32 H102         3.3630     1.9860    -1.3570 hc         1 T28       0.056200
     33 H101         2.9300     3.5840    -0.7980 hc         1 T28       0.056200
@<TRIPOS>BOND
     1     1     2 1   
     2     2     3 ar  
     3     2     7 ar  
     4     3     4 ar  
     5     3    21 1   
     6     4     5 ar  
     7     4     8 1   
     8     5     6 ar  
     9     5    10 1   
    10     6     7 ar  
    11     6    22 1   
    12     7    23 1   
    13     8     9 2   
    14     8    11 1   
    15     9    10 1   
    16     9    20 1   
    17    10    24 1   
    18    11    12 ar  
    19    11    17 ar  
    20    12    13 ar  
    21    13    14 1   
    22    13    15 ar  
    23    14    25 1   
    24    14    26 1   
    25    15    16 ar  
    26    16    17 ar  
    27    16    27 1   
    28    17    18 1   
    29    18    19 1   
    30    18    28 1   
    31    18    29 1   
    32    19    20 1   
    33    19    30 1   
    34    19    31 1   
    35    20    32 1   
    36    20    33 1   
@<TRIPOS>SUBSTRUCTURE
     1 T28         1 TEMP              0 ****  ****    0 ROOT
