@<TRIPOS>MOLECULE
T2A
   50    53     1     0     0
SMALL
No Charge or Current Charge


@<TRIPOS>ATOM
      1 N1         -17.4570    55.5160    55.9270 na         1 T2A       0.204000
      2 C5         -15.8630    55.0160    54.2350 cc         1 T2A       0.231900
      3 C6         -16.3140    55.8100    55.3050 cc         1 T2A      -0.316000
      4 C7         -15.8020    56.9120    55.9310 cd         1 T2A       0.118400
      5 C10        -18.7880    56.4130    57.9330 ca         1 T2A      -0.106900
      6 C13        -20.9180    56.5290    59.8020 ca         1 T2A      -0.096000
      7 C15        -20.0660    55.8960    57.6100 ca         1 T2A      -0.076000
      8 C20        -20.9890    51.1280    56.3900 ca         1 T2A       0.181600
      9 C21        -21.7370    50.3720    55.4360 ca         1 T2A       0.006100
     10 C22        -21.3210    50.3770    54.0830 ca         1 T2A       0.181600
     11 N2         -18.2010    54.4040    55.6150 nc         1 T2A      -0.327800
     12 C3         -17.6920    53.6920    54.5940 cd         1 T2A       0.353900
     13 N4         -16.5380    53.9500    53.8360 nd         1 T2A      -0.233000
     14 N8         -16.6450    57.2750    56.9780 nd         1 T2A      -0.577300
     15 C9         -17.6690    56.4080    56.9670 cc         1 T2A       0.457400
     16 C11        -18.6140    57.0280    59.1950 ca         1 T2A      -0.076000
     17 C12        -19.6670    57.0750    60.1250 ca         1 T2A      -0.123500
     18 C14        -21.1180    55.9460    58.5420 ca         1 T2A      -0.123500
     19 C16        -14.5260    57.6500    55.6240 c3         1 T2A      -0.023900
     20 N17        -18.3720    52.5920    54.1580 nu         1 T2A      -0.930900
     21 C18        -19.4770    51.8740    54.6150 ca         1 T2A       0.376000
     22 C19        -19.8610    51.8590    55.9610 ca         1 T2A      -0.262000
     23 C23        -20.1940    51.1230    53.6840 ca         1 T2A      -0.262000
     24 C25        -21.7180    49.5690    51.7720 c3         1 T2A       0.143900
     25 O26        -22.8680    49.6090    55.7350 os         1 T2A      -0.331100
     26 C27        -23.4570    49.4780    57.0410 c3         1 T2A       0.146900
     27 O28        -21.3590    51.1460    57.7250 os         1 T2A      -0.330600
     28 C29        -20.6880    51.9410    58.7210 c3         1 T2A       0.143900
     29 H5         -14.9510    55.2160    53.6890 h4         1 T2A       0.039100
     30 H13        -21.7330    56.5680    60.5220 ha         1 T2A       0.114000
     31 H15        -20.2680    55.4670    56.6320 ha         1 T2A       0.134500
     32 H11        -17.6520    57.4600    59.4650 ha         1 T2A       0.134500
     33 H12        -19.5110    57.5400    61.0970 ha         1 T2A       0.117000
     34 H14        -22.0930    55.5390    58.2820 ha         1 T2A       0.117000
     35 H16        -14.4950    57.9550    54.5710 hc         1 T2A       0.053700
     36 H16A       -14.4280    58.5540    56.2370 hc         1 T2A       0.053700
     37 H16B       -13.6540    57.0160    55.8170 hc         1 T2A       0.053700
     38 HN17       -18.0250    52.2700    53.2560 hn         1 T2A       0.517000
     39 H19        -19.2620    52.4040    56.6760 ha         1 T2A       0.135500
     40 H23        -19.8740    51.1380    52.6490 ha         1 T2A       0.135500
     41 H25        -22.4290    48.9230    51.2420 h1         1 T2A       0.045033
     42 H25A       -21.7580    50.5650    51.3150 h1         1 T2A       0.045033
     43 H25B       -20.7120    49.1530    51.6300 h1         1 T2A       0.045033
     44 H27        -22.7480    49.0290    57.7490 h1         1 T2A       0.035033
     45 H27A       -23.7830    50.4530    57.4250 h1         1 T2A       0.035033
     46 H27B       -24.3380    48.8270    56.9930 h1         1 T2A       0.035033
     47 H29        -19.6390    51.6340    58.8250 h1         1 T2A       0.045033
     48 H29A       -20.7210    53.0060    58.4590 h1         1 T2A       0.045033
     49 H29B       -21.1740    51.8160    59.6960 h1         1 T2A       0.045033
     50 O24        -22.0520    49.6330    53.1700 os         1 T2A      -0.330600
@<TRIPOS>BOND
     1     1     3 1   
     2     1    11 1   
     3     1    15 1   
     4     2     3 1   
     5     2    13 2   
     6     2    29 1   
     7     3     4 2   
     8     4    14 1   
     9     4    19 1   
    10     5     7 ar  
    11     5    15 1   
    12     5    16 ar  
    13     6    17 ar  
    14     6    18 ar  
    15     6    30 1   
    16     7    18 ar  
    17     7    31 1   
    18     8     9 ar  
    19     8    22 ar  
    20     8    27 1   
    21     9    10 ar  
    22     9    25 1   
    23    10    23 ar  
    24    10    50 1   
    25    11    12 2   
    26    12    13 1   
    27    12    20 1   
    28    14    15 2   
    29    16    17 ar  
    30    16    32 1   
    31    17    33 1   
    32    18    34 1   
    33    19    35 1   
    34    19    36 1   
    35    19    37 1   
    36    20    21 1   
    37    20    38 1   
    38    21    22 ar  
    39    21    23 ar  
    40    22    39 1   
    41    23    40 1   
    42    24    41 1   
    43    24    42 1   
    44    24    43 1   
    45    24    50 1   
    46    25    26 1   
    47    26    44 1   
    48    26    45 1   
    49    26    46 1   
    50    27    28 1   
    51    28    47 1   
    52    28    48 1   
    53    28    49 1   
@<TRIPOS>SUBSTRUCTURE
     1 T2A         1 TEMP              0 ****  ****    0 ROOT
