@<TRIPOS>MOLECULE
T2A
   50    53     1     0     0
SMALL
abcg2


@<TRIPOS>ATOM
      1 N1         -17.4210    55.4440    56.0020 na         1 T2A       0.204000
      2 C5         -15.8850    54.9120    54.2750 cc         1 T2A       0.231900
      3 C6         -16.2120    55.7270    55.3620 cc         1 T2A      -0.316000
      4 C7         -15.6810    56.8260    56.0410 cd         1 T2A       0.118400
      5 C10        -18.7330    56.4450    57.8980 ca         1 T2A      -0.106900
      6 C13        -20.8970    56.7850    59.6490 ca         1 T2A      -0.096000
      7 C15        -19.9940    55.9200    57.5830 ca         1 T2A      -0.076000
      8 C20        -21.2340    51.4860    56.4340 ca         1 T2A       0.181600
      9 C21        -21.9500    50.6660    55.5560 ca         1 T2A       0.006100
     10 C22        -21.5020    50.5210    54.2370 ca         1 T2A       0.181600
     11 N2         -18.2280    54.4010    55.6610 nc         1 T2A      -0.327800
     12 C3         -17.7940    53.7010    54.6390 cd         1 T2A       0.353900
     13 N4         -16.6490    53.9210    53.8950 nd         1 T2A      -0.233000
     14 N8         -16.5290    57.1810    57.0250 nd         1 T2A      -0.577300
     15 C9         -17.5900    56.3430    56.9980 cc         1 T2A       0.457400
     16 C11        -18.5750    57.1400    59.1070 ca         1 T2A      -0.076000
     17 C12        -19.6450    57.3040    59.9730 ca         1 T2A      -0.123500
     18 C14        -21.0640    56.0960    58.4530 ca         1 T2A      -0.123500
     19 C16        -14.3960    57.5330    55.7770 c3         1 T2A      -0.023900
     20 N17        -18.5040    52.6270    54.1930 nu         1 T2A      -0.930900
     21 C18        -19.6670    52.0220    54.6910 ca         1 T2A       0.376000
     22 C19        -20.0980    52.1750    56.0080 ca         1 T2A      -0.262000
     23 C23        -20.3650    51.1970    53.8040 ca         1 T2A      -0.262000
     24 C25        -21.8260    49.5080    52.0970 c3         1 T2A       0.143900
     25 O26        -23.0980    50.0350    55.9700 os         1 T2A      -0.331100
     26 C27        -22.8750    48.7360    56.5410 c3         1 T2A       0.146900
     27 O28        -21.7190    51.5540    57.7020 os         1 T2A      -0.330600
     28 C29        -20.9510    52.2520    58.6830 c3         1 T2A       0.143900
     29 H5         -14.9740    55.0960    53.7150 h4         1 T2A       0.039100
     30 H13        -21.7330    56.9150    60.3250 ha         1 T2A       0.114000
     31 H15        -20.1360    55.3800    56.6610 ha         1 T2A       0.134500
     32 H11        -17.6050    57.5460    59.3580 ha         1 T2A       0.134500
     33 H12        -19.5030    57.8390    60.9040 ha         1 T2A       0.117000
     34 H14        -22.0320    55.6890    58.1910 ha         1 T2A       0.117000
     35 H16        -14.3010    57.8000    54.7220 hc         1 T2A       0.053700
     36 H16A       -14.3470    58.4420    56.3740 hc         1 T2A       0.053700
     37 H16B       -13.5400    56.9040    56.0340 hc         1 T2A       0.053700
     38 HN17       -18.1380    52.2460    53.3330 hn         1 T2A       0.517000
     39 H19        -19.5550    52.8150    56.6790 ha         1 T2A       0.135500
     40 H23        -20.0120    51.0930    52.7890 ha         1 T2A       0.135500
     41 H25        -22.5480    48.8240    51.6590 h1         1 T2A       0.045033
     42 H25A       -21.8310    50.4500    51.5450 h1         1 T2A       0.045033
     43 H25B       -20.8280    49.0650    52.0540 h1         1 T2A       0.045033
     44 H27        -22.4070    48.0720    55.8100 h1         1 T2A       0.035033
     45 H27A       -22.2410    48.8110    57.4270 h1         1 T2A       0.035033
     46 H27B       -23.8520    48.3460    56.8190 h1         1 T2A       0.035033
     47 H29        -19.9530    51.8160    58.7780 h1         1 T2A       0.045033
     48 H29A       -20.8640    53.3110    58.4390 h1         1 T2A       0.045033
     49 H29B       -21.4930    52.1370    59.6180 h1         1 T2A       0.045033
     50 O24        -22.2430    49.7020    53.4480 os         1 T2A      -0.330600
@<TRIPOS>BOND
     1     1     3 1   
     2     1    11 1   
     3     1    15 1   
     4     2     3 1   
     5     2    13 2   
     6     2    29 1   
     7     3     4 2   
     8     4    14 1   
     9     4    19 1   
    10     5     7 ar  
    11     5    15 1   
    12     5    16 ar  
    13     6    17 ar  
    14     6    18 ar  
    15     6    30 1   
    16     7    18 ar  
    17     7    31 1   
    18     8     9 ar  
    19     8    22 ar  
    20     8    27 1   
    21     9    10 ar  
    22     9    25 1   
    23    10    23 ar  
    24    10    50 1   
    25    11    12 2   
    26    12    13 1   
    27    12    20 1   
    28    14    15 2   
    29    16    17 ar  
    30    16    32 1   
    31    17    33 1   
    32    18    34 1   
    33    19    35 1   
    34    19    36 1   
    35    19    37 1   
    36    20    21 1   
    37    20    38 1   
    38    21    22 ar  
    39    21    23 ar  
    40    22    39 1   
    41    23    40 1   
    42    24    41 1   
    43    24    42 1   
    44    24    43 1   
    45    24    50 1   
    46    25    26 1   
    47    26    44 1   
    48    26    45 1   
    49    26    46 1   
    50    27    28 1   
    51    28    47 1   
    52    28    48 1   
    53    28    49 1   
@<TRIPOS>SUBSTRUCTURE
     1 T2A         1 TEMP              0 ****  ****    0 ROOT
