@<TRIPOS>MOLECULE
T2B
   36    37     1     0     0
SMALL
No Charge or Current Charge


@<TRIPOS>ATOM
      1 O4          -7.3830    -0.9430     0.4520 oh         1 T2B      -0.637000
      2 C17         -6.3520    -0.4010     1.2960 c3         1 T2B       0.172600
      3 C15         -4.9730    -0.3450     0.5610 c3         1 T2B       0.165500
      4 N1          -4.9920     0.5310    -0.6420 n8         1 T2B      -0.981200
      5 C13         -3.8350     0.0990     1.5150 c3         1 T2B      -0.080100
      6 C1          -2.4520     0.1090     0.8660 ca         1 T2B      -0.089300
      7 C11         -1.7640     1.3230     0.6640 ca         1 T2B      -0.061500
      8 C9          -0.4880     1.3290     0.0750 ca         1 T2B       0.175000
      9 I3           0.5280     3.2310    -0.2190 i          1 T2B      -0.272000
     10 C7           0.1160     0.1160    -0.3140 ca         1 T2B       0.155100
     11 C5          -0.5670    -1.0990    -0.1130 ca         1 T2B       0.175000
     12 I1           0.3320    -2.9940    -0.6920 i          1 T2B      -0.272000
     13 C3          -1.8430    -1.1020     0.4770 ca         1 T2B      -0.061500
     14 O2           1.3680     0.1170    -0.8920 os         1 T2B      -0.239200
     15 C2           2.5320     0.1040    -0.1530 ca         1 T2B       0.093100
     16 C12          3.7540     0.2070    -0.8380 ca         1 T2B      -0.108000
     17 C10          4.9680     0.1980    -0.1260 ca         1 T2B      -0.144500
     18 C8           4.9610     0.0850     1.2730 ca         1 T2B       0.116100
     19 O1           6.1430     0.0770     1.9530 oh         1 T2B      -0.532100
     20 C6           3.7420    -0.0210     1.9640 ca         1 T2B      -0.144500
     21 C4           2.5260    -0.0120     1.2550 ca         1 T2B      -0.108000
     22 H1          -8.2230    -0.8870     0.9580 ho         1 T2B       0.439000
     23 H2          -6.6270     0.6110     1.6250 h1         1 T2B       0.013200
     24 H3          -6.2490    -1.0220     2.1960 h1         1 T2B       0.013200
     25 H4          -4.7380    -1.3660     0.2260 h1         1 T2B       0.075700
     26 H5          -5.3150     1.4650    -0.3680 hn         1 T2B       0.397000
     27 H6          -4.0250     0.6890    -0.9460 hn         1 T2B       0.397000
     28 H8          -4.0750     1.0900     1.9220 hc         1 T2B       0.055200
     29 H9          -3.8190    -0.5780     2.3780 hc         1 T2B       0.055200
     30 H10         -2.2150     2.2660     0.9620 ha         1 T2B       0.131500
     31 H11         -2.3550    -2.0480     0.6330 ha         1 T2B       0.131500
     32 H12          3.7600     0.2940    -1.9210 ha         1 T2B       0.129000
     33 H13          5.9110     0.2780    -0.6600 ha         1 T2B       0.123500
     34 H14          5.9520    -0.0080     2.9120 ho         1 T2B       0.464000
     35 H15          3.7290    -0.1100     3.0480 ha         1 T2B       0.123500
     36 H16          1.5950    -0.0970     1.8090 ha         1 T2B       0.129000
@<TRIPOS>BOND
     1     1     2 1   
     2     1    22 1   
     3     2     3 1   
     4     2    23 1   
     5     2    24 1   
     6     3     4 1   
     7     3     5 1   
     8     3    25 1   
     9     4    26 1   
    10     4    27 1   
    11     5     6 1   
    12     5    28 1   
    13     5    29 1   
    14     6     7 ar  
    15     6    13 ar  
    16     7     8 ar  
    17     7    30 1   
    18     8     9 1   
    19     8    10 ar  
    20    10    11 ar  
    21    10    14 1   
    22    11    12 1   
    23    11    13 ar  
    24    13    31 1   
    25    14    15 1   
    26    15    16 ar  
    27    15    21 ar  
    28    16    17 ar  
    29    16    32 1   
    30    17    18 ar  
    31    17    33 1   
    32    18    19 1   
    33    18    20 ar  
    34    19    34 1   
    35    20    21 ar  
    36    20    35 1   
    37    21    36 1   
@<TRIPOS>SUBSTRUCTURE
     1 T2B         1 TEMP              0 ****  ****    0 ROOT
