@<TRIPOS>MOLECULE
T2B
   36    37     1     0     0
SMALL
bcc


@<TRIPOS>ATOM
      1 O4          -7.2580    -0.6350     0.2700 oh         1 T2B      -0.574800
      2 C17         -6.2470    -0.3340     1.2010 c3         1 T2B       0.149400
      3 C15         -4.9050    -0.2420     0.4920 c3         1 T2B       0.165500
      4 N1          -4.9160     0.8400    -0.4720 n8         1 T2B      -0.870800
      5 C13         -3.7930    -0.1480     1.5600 c3         1 T2B      -0.080100
      6 C1          -2.4240    -0.0670     0.9540 ca         1 T2B      -0.089300
      7 C11         -1.8400     1.1640     0.6740 ca         1 T2B      -0.079500
      8 C9          -0.5930     1.2300     0.0720 ca         1 T2B       0.037900
      9 I3           0.2620     3.0970    -0.3480 i          1 T2B      -0.134900
     10 C7           0.0990     0.0740    -0.2730 ca         1 T2B       0.155100
     11 C5          -0.4930    -1.1540     0.0030 ca         1 T2B       0.037900
     12 I1           0.5130    -2.9160    -0.5230 i          1 T2B      -0.134900
     13 C3          -1.7400    -1.2280     0.6040 ca         1 T2B      -0.079500
     14 O2           1.3000     0.1440    -0.8960 os         1 T2B      -0.239200
     15 C2           2.4450     0.1320    -0.1320 ca         1 T2B       0.093100
     16 C12          3.6460     0.0910    -0.8280 ca         1 T2B      -0.126000
     17 C10          4.8470     0.0880    -0.1410 ca         1 T2B      -0.162500
     18 C8           4.8620     0.1240     1.2520 ca         1 T2B       0.116100
     19 O1           6.0610     0.1190     1.8730 oh         1 T2B      -0.493100
     20 C6           3.6550     0.1620     1.9390 ca         1 T2B      -0.162500
     21 C4           2.4470     0.1670     1.2520 ca         1 T2B      -0.126000
     22 H1          -8.0920    -0.6840     0.7460 ho         1 T2B       0.400000
     23 H2          -6.4400     0.6200     1.7150 h1         1 T2B       0.013200
     24 H3          -6.1780    -1.1030     1.9810 h1         1 T2B       0.013200
     25 H4          -4.7520    -1.1750    -0.0630 h1         1 T2B       0.075700
     26 H5          -4.9500     1.7340     0.0060 hn         1 T2B       0.341800
     27 H6          -4.0600     0.8410    -1.0130 hn         1 T2B       0.341800
     28 H8          -3.9690     0.7310     2.1870 hc         1 T2B       0.055200
     29 H9          -3.8500    -1.0200     2.2160 hc         1 T2B       0.055200
     30 H10         -2.3590     2.0740     0.9460 ha         1 T2B       0.149500
     31 H11         -2.1870    -2.1910     0.8110 ha         1 T2B       0.149500
     32 H12          3.6430     0.0620    -1.9100 ha         1 T2B       0.147000
     33 H13          5.7790     0.0560    -0.6910 ha         1 T2B       0.141500
     34 H14          5.9420     0.1410     2.8290 ho         1 T2B       0.425000
     35 H15          3.6420     0.1900     3.0220 ha         1 T2B       0.141500
     36 H16          1.5280     0.1990     1.8230 ha         1 T2B       0.147000
@<TRIPOS>BOND
     1     1     2 1   
     2     1    22 1   
     3     2     3 1   
     4     2    23 1   
     5     2    24 1   
     6     3     4 1   
     7     3     5 1   
     8     3    25 1   
     9     4    26 1   
    10     4    27 1   
    11     5     6 1   
    12     5    28 1   
    13     5    29 1   
    14     6     7 ar  
    15     6    13 ar  
    16     7     8 ar  
    17     7    30 1   
    18     8     9 1   
    19     8    10 ar  
    20    10    11 ar  
    21    10    14 1   
    22    11    12 1   
    23    11    13 ar  
    24    13    31 1   
    25    14    15 1   
    26    15    16 ar  
    27    15    21 ar  
    28    16    17 ar  
    29    16    32 1   
    30    17    18 ar  
    31    17    33 1   
    32    18    19 1   
    33    18    20 ar  
    34    19    34 1   
    35    20    21 ar  
    36    20    35 1   
    37    21    36 1   
@<TRIPOS>SUBSTRUCTURE
     1 T2B         1 TEMP              0 ****  ****    0 ROOT
