@<TRIPOS>MOLECULE
T2C
   14    14     1     0     0
SMALL
abcg2


@<TRIPOS>ATOM
      1 C01        -39.9110    55.3380    78.7830 c5         1 T2C       0.244500
      2 C02        -42.1410    55.3820    77.9480 c5         1 T2C       0.159800
      3 C03        -41.8070    53.8860    77.6430 c5         1 T2C       0.038600
      4 C04        -38.4840    55.8980    78.5950 c          1 T2C       0.727000
      5 N01        -40.9310    56.1530    78.2070 n7         1 T2C      -0.840400
      6 O01        -37.6200    55.4670    79.3970 o          1 T2C      -0.711000
      7 O02        -38.3120    56.6900    77.6390 o          1 T2C      -0.711000
      8 S01        -40.0140    53.6690    77.8980 ss         1 T2C      -0.580000
      9 H1         -40.1090    55.1390    79.8360 h2         1 T2C       0.069700
     10 H2         -42.6730    55.8390    77.1140 h1         1 T2C       0.032700
     11 H3         -42.7990    55.4130    78.8190 h1         1 T2C       0.032700
     12 H4         -42.3530    53.2260    78.3150 h1         1 T2C       0.043700
     13 H5         -42.0500    53.6160    76.6160 h1         1 T2C       0.043700
     14 H6         -40.5550    56.5490    77.3510 hn         1 T2C       0.451000
@<TRIPOS>BOND
     1     1     4 1   
     2     1     5 1   
     3     1     8 1   
     4     1     9 1   
     5     2     3 1   
     6     2     5 1   
     7     2    10 1   
     8     2    11 1   
     9     3     8 1   
    10     3    12 1   
    11     3    13 1   
    12     4     6 1   
    13     4     7 1   
    14     5    14 1   
@<TRIPOS>SUBSTRUCTURE
     1 T2C         1 TEMP              0 ****  ****    0 ROOT
