@<TRIPOS>MOLECULE
T2C
   14    14     1     0     0
SMALL
No Charge or Current Charge


@<TRIPOS>ATOM
      1 C01        -39.8990    55.3550    78.7250 c5         1 T2C       0.244500
      2 C02        -42.1850    55.3510    78.0940 c5         1 T2C       0.159800
      3 C03        -41.8460    53.9450    77.5340 c5         1 T2C       0.038600
      4 C04        -38.3970    55.9280    78.6900 c          1 T2C       0.727000
      5 N01        -40.9320    56.1330    77.9720 n7         1 T2C      -0.840400
      6 O01        -37.7300    55.9180    79.7210 o          1 T2C      -0.711000
      7 O02        -37.9400    56.3840    77.6430 o          1 T2C      -0.711000
      8 S01        -40.0370    53.6880    77.8850 ss         1 T2C      -0.580000
      9 H1         -40.1930    55.2470    79.7780 h2         1 T2C       0.069700
     10 H2         -43.0070    55.8170    77.5330 h1         1 T2C       0.032700
     11 H3         -42.4950    55.2900    79.1470 h1         1 T2C       0.032700
     12 H4         -42.4550    53.1610    78.0030 h1         1 T2C       0.043700
     13 H5         -42.0080    53.9030    76.4480 h1         1 T2C       0.043700
     14 H6         -40.6350    56.1460    76.9900 hn         1 T2C       0.451000
@<TRIPOS>BOND
     1     1     4 1   
     2     1     5 1   
     3     1     8 1   
     4     1     9 1   
     5     2     3 1   
     6     2     5 1   
     7     2    10 1   
     8     2    11 1   
     9     3     8 1   
    10     3    12 1   
    11     3    13 1   
    12     4     6 1   
    13     4     7 1   
    14     5    14 1   
@<TRIPOS>SUBSTRUCTURE
     1 T2C         1 TEMP              0 ****  ****    0 ROOT
