@<TRIPOS>MOLECULE
T2D
   22    23     1     0     0
SMALL
bcc


@<TRIPOS>ATOM
      1 C1          -1.1860    -1.3320     2.2270 ca         1 T2D      -0.111000
      2 C2          -2.2190    -1.5400     3.1270 ca         1 T2D      -0.119500
      3 C3          -2.9860    -2.6970     3.0560 ca         1 T2D      -0.113000
      4 C4          -2.7130    -3.6530     2.0870 ca         1 T2D      -0.119500
      5 C5          -1.6690    -3.4590     1.1920 ca         1 T2D      -0.111000
      6 C6          -0.9090    -2.3000     1.2660 ca         1 T2D       0.082600
      7 N7           0.1500    -2.1250     0.3280 nh         1 T2D      -0.632900
      8 S8          -0.2740    -1.4200    -1.1110 s6         1 T2D       1.443500
      9 N9           1.3220    -1.1260    -1.4930 ns         1 T2D      -0.667300
     10 C10          2.2200    -1.2860    -0.4750 c          1 T2D       0.722500
     11 C11          1.4870    -1.7460     0.7610 c5         1 T2D       0.121800
     12 O12          3.4020    -1.0770    -0.5540 o          1 T2D      -0.556500
     13 O13         -0.8440    -2.3900    -2.0160 o          1 T2D      -0.598800
     14 O14         -1.0000    -0.1800    -0.9310 o          1 T2D      -0.598800
     15 H1          -0.5970    -0.4250     2.2770 ha         1 T2D       0.148000
     16 H2          -2.4320    -0.7920     3.8790 ha         1 T2D       0.140500
     17 H3          -3.7940    -2.8530     3.7580 ha         1 T2D       0.138000
     18 H4          -3.3070    -4.5550     2.0310 ha         1 T2D       0.140500
     19 H5          -1.4380    -4.2070     0.4450 ha         1 T2D       0.148000
     20 H9           1.5780    -0.7820    -2.4130 hn         1 T2D       0.359500
     21 H111         1.9930    -2.6040     1.2040 h1         1 T2D       0.091700
     22 H112         1.4870    -0.9270     1.4870 h1         1 T2D       0.091700
@<TRIPOS>BOND
     1     1     2 ar  
     2     1     6 ar  
     3     1    15 1   
     4     2     3 ar  
     5     2    16 1   
     6     3     4 ar  
     7     3    17 1   
     8     4     5 ar  
     9     4    18 1   
    10     5     6 ar  
    11     5    19 1   
    12     6     7 1   
    13     7     8 1   
    14     7    11 1   
    15     8     9 1   
    16     8    13 2   
    17     8    14 2   
    18     9    10 1   
    19     9    20 1   
    20    10    11 1   
    21    10    12 2   
    22    11    21 1   
    23    11    22 1   
@<TRIPOS>SUBSTRUCTURE
     1 T2D         1 TEMP              0 ****  ****    0 ROOT
