@<TRIPOS>MOLECULE
T2D
   22    23     1     0     0
SMALL
No Charge or Current Charge


@<TRIPOS>ATOM
      1 C1          -0.8490    -1.8070     2.6700 ca         1 T2D      -0.093000
      2 C2          -1.8540    -2.1320     3.5980 ca         1 T2D      -0.101500
      3 C3          -3.0180    -2.7880     3.1730 ca         1 T2D      -0.095000
      4 C4          -3.1740    -3.1160     1.8190 ca         1 T2D      -0.101500
      5 C5          -2.1680    -2.7900     0.8900 ca         1 T2D      -0.093000
      6 C6          -0.9840    -2.1280     1.2990 ca         1 T2D       0.221000
      7 N7           0.0550    -1.7820     0.3900 nh         1 T2D      -0.771300
      8 S8          -0.0030    -2.1230    -1.2890 s6         1 T2D       1.301900
      9 N9           1.4640    -1.4490    -1.5700 ns         1 T2D      -0.600300
     10 C10          2.1710    -0.9100    -0.5530 c          1 T2D       0.580000
     11 C11          1.3380    -1.0770     0.7660 c5         1 T2D       0.121800
     12 O12          3.2680    -0.3940    -0.7010 o          1 T2D      -0.481000
     13 O13          0.0800    -3.5710    -1.4900 o          1 T2D      -0.528000
     14 O14         -1.0430    -1.3020    -1.9110 o          1 T2D      -0.528000
     15 H1           0.0390    -1.3000     3.0320 ha         1 T2D       0.130000
     16 H2          -1.7280    -1.8750     4.6470 ha         1 T2D       0.122500
     17 H3          -3.7970    -3.0400     3.8900 ha         1 T2D       0.120000
     18 H4          -4.0760    -3.6250     1.4850 ha         1 T2D       0.122500
     19 H5          -2.3340    -3.0650    -0.1450 ha         1 T2D       0.130000
     20 H9           1.7870    -1.4650    -2.5200 hn         1 T2D       0.359500
     21 H111         1.9400    -1.6620     1.4730 h1         1 T2D       0.091700
     22 H112         1.1550    -0.0770     1.1780 h1         1 T2D       0.091700
@<TRIPOS>BOND
     1     1     2 ar  
     2     1     6 ar  
     3     1    15 1   
     4     2     3 ar  
     5     2    16 1   
     6     3     4 ar  
     7     3    17 1   
     8     4     5 ar  
     9     4    18 1   
    10     5     6 ar  
    11     5    19 1   
    12     6     7 1   
    13     7     8 1   
    14     7    11 1   
    15     8     9 1   
    16     8    13 2   
    17     8    14 2   
    18     9    10 1   
    19     9    20 1   
    20    10    11 1   
    21    10    12 2   
    22    11    21 1   
    23    11    22 1   
@<TRIPOS>SUBSTRUCTURE
     1 T2D         1 TEMP              0 ****  ****    0 ROOT
