@<TRIPOS>MOLECULE
T2E
   30    31     1     0     0
SMALL
No Charge or Current Charge


@<TRIPOS>ATOM
      1 C10          5.5640    -6.5090     6.0420 ca         1 T2E      -0.133000
      2 C13          6.4890    -4.8550     8.1020 ca         1 T2E      -0.148000
      3 C15          5.9900    -2.7760     6.7860 c          1 T2E       0.728600
      4 C01          1.1430    -4.9970     7.0790 ca         1 T2E      -0.171000
      5 C02          2.2850    -4.3450     6.5850 ca         1 T2E      -0.047000
      6 C03          2.5540    -4.4250     5.2060 ca         1 T2E      -0.152300
      7 C04          1.6680    -5.1520     4.3870 ca         1 T2E       0.320900
      8 C06          0.3150    -5.6990     6.1870 ca         1 T2E       0.312900
      9 C07          3.7710    -3.7420     4.6030 c3         1 T2E       0.202100
     10 C09          5.5010    -5.1130     5.8810 ca         1 T2E       0.189000
     11 C11          6.0770    -7.0750     7.2220 ca         1 T2E      -0.192000
     12 C12          6.5350    -6.2470     8.2540 ca         1 T2E       0.241000
     13 C14          5.9810    -4.2740     6.9170 ca         1 T2E      -0.064600
     14 N05          0.5640    -5.7790     4.8600 nb         1 T2E      -0.688000
     15 N08          4.9500    -4.6250     4.6870 nu         1 T2E      -0.851200
     16 N18          7.0320    -6.8020     9.4020 nv         1 T2E      -1.071000
     17 O16          6.8390    -2.2580     6.0710 o          1 T2E      -0.718000
     18 O17          5.2370    -2.1340     7.5070 o          1 T2E      -0.718000
     19 H1           5.2010    -7.1640     5.2530 ha         1 T2E       0.086000
     20 H2           6.8540    -4.2110     8.8970 ha         1 T2E       0.114000
     21 H5           1.8440    -5.2350     3.3150 h4         1 T2E       0.008100
     22 H6          -0.5770    -6.2120     6.5450 h4         1 T2E       0.000100
     23 H7           3.9500    -2.7900     5.1220 h1         1 T2E       0.082700
     24 H8           3.5620    -3.4930     3.5520 h1         1 T2E       0.082700
     25 H9           6.1100    -8.1560     7.3300 ha         1 T2E       0.087000
     26 H10          5.0140    -5.2930     3.9190 hn         1 T2E       0.393000
     27 H11          7.1560    -7.8100     9.4700 hn         1 T2E       0.422500
     28 H12          7.4610    -6.2150    10.1150 hn         1 T2E       0.422500
     29 H3           0.8990    -4.9620     8.1360 ha         1 T2E       0.114000
     30 H4           2.9430    -3.7950     7.2550 ha         1 T2E       0.144000
@<TRIPOS>BOND
     1     1    10 ar  
     2     1    11 ar  
     3     1    19 1   
     4     2    12 ar  
     5     2    13 ar  
     6     2    20 1   
     7     3    13 1   
     8     3    17 1   
     9     3    18 1   
    10     4     5 ar  
    11     4     8 ar  
    12     4    29 1   
    13     5     6 ar  
    14     5    30 1   
    15     6     7 ar  
    16     6     9 1   
    17     7    14 ar  
    18     7    21 1   
    19     8    14 ar  
    20     8    22 1   
    21     9    15 1   
    22     9    23 1   
    23     9    24 1   
    24    10    13 ar  
    25    10    15 1   
    26    11    12 ar  
    27    11    25 1   
    28    12    16 1   
    29    15    26 1   
    30    16    27 1   
    31    16    28 1   
@<TRIPOS>SUBSTRUCTURE
     1 T2E         1 TEMP              0 ****  ****    0 ROOT
