@<TRIPOS>MOLECULE
T2E
   30    31     1     0     0
SMALL
abcg2


@<TRIPOS>ATOM
      1 C10          5.1450    -6.2660     6.2550 ca         1 T2E      -0.133000
      2 C13          6.7180    -4.7880     7.9500 ca         1 T2E      -0.148000
      3 C15          6.6240    -2.7520     6.5030 c          1 T2E       0.728600
      4 C01          1.1540    -5.5200     6.9960 ca         1 T2E      -0.171000
      5 C02          2.2070    -4.6870     6.6540 ca         1 T2E      -0.047000
      6 C03          2.4790    -4.4450     5.3110 ca         1 T2E      -0.152300
      7 C04          1.6530    -5.0650     4.3790 ca         1 T2E       0.320900
      8 C06          0.4010    -6.0860     5.9770 ca         1 T2E       0.312900
      9 C07          3.6520    -3.6090     4.8750 c3         1 T2E       0.202100
     10 C09          5.4050    -4.9350     5.9340 ca         1 T2E       0.189000
     11 C11          5.6510    -6.8590     7.4010 ca         1 T2E      -0.192000
     12 C12          6.4350    -6.1150     8.2850 ca         1 T2E       0.241000
     13 C14          6.2160    -4.1890     6.7990 ca         1 T2E      -0.064600
     14 N05          0.6380    -5.8630     4.6900 nb         1 T2E      -0.688000
     15 N08          4.9020    -4.3590     4.7370 nu         1 T2E      -0.851200
     16 N18          6.8900    -6.6610     9.4770 nv         1 T2E      -1.071000
     17 O16          7.8270    -2.5800     6.2360 o          1 T2E      -0.718000
     18 O17          5.7360    -1.8820     6.5860 o          1 T2E      -0.718000
     19 H1           4.5330    -6.8600     5.5850 ha         1 T2E       0.086000
     20 H2           7.3590    -4.2110     8.6100 ha         1 T2E       0.114000
     21 H5           1.8250    -4.8980     3.3190 h4         1 T2E       0.008100
     22 H6          -0.4310    -6.7410     6.2110 h4         1 T2E       0.000100
     23 H7           3.8260    -2.8030     5.5840 h1         1 T2E       0.082700
     24 H8           3.4340    -3.1510     3.9070 h1         1 T2E       0.082700
     25 H9           5.4280    -7.8980     7.6150 ha         1 T2E       0.087000
     26 H10          4.7750    -5.0800     4.0370 hn         1 T2E       0.393000
     27 H11          6.9890    -7.6640     9.4700 hn         1 T2E       0.422500
     28 H12          7.7180    -6.2240     9.8500 hn         1 T2E       0.422500
     29 H3           0.9150    -5.7290     8.0300 ha         1 T2E       0.114000
     30 H4           2.8100    -4.2210     7.4240 ha         1 T2E       0.144000
@<TRIPOS>BOND
     1     1    10 ar  
     2     1    11 ar  
     3     1    19 1   
     4     2    12 ar  
     5     2    13 ar  
     6     2    20 1   
     7     3    13 1   
     8     3    17 1   
     9     3    18 1   
    10     4     5 ar  
    11     4     8 ar  
    12     4    29 1   
    13     5     6 ar  
    14     5    30 1   
    15     6     7 ar  
    16     6     9 1   
    17     7    14 ar  
    18     7    21 1   
    19     8    14 ar  
    20     8    22 1   
    21     9    15 1   
    22     9    23 1   
    23     9    24 1   
    24    10    13 ar  
    25    10    15 1   
    26    11    12 ar  
    27    11    25 1   
    28    12    16 1   
    29    15    26 1   
    30    16    27 1   
    31    16    28 1   
@<TRIPOS>SUBSTRUCTURE
     1 T2E         1 TEMP              0 ****  ****    0 ROOT
