@<TRIPOS>MOLECULE
T2F
   31    33     1     0     0
SMALL
No Charge or Current Charge


@<TRIPOS>ATOM
      1 C10         -9.6990   -12.2070    14.2400 ca         1 T2F      -0.100500
      2 C11         -8.5160    -9.7660    12.6680 ca         1 T2F      -0.096800
      3 C12         -9.0570   -10.4880    11.5510 cc         1 T2F      -0.248200
      4 C13         -9.1460    -9.6140    10.4810 cd         1 T2F      -0.195100
      5 O1          -5.6870    -6.3510    15.0270 o          1 T2F      -0.717000
      6 O           -7.2710    -6.7320    16.4350 o          1 T2F      -0.717000
      7 C2          -7.3730    -7.8660    14.3800 ca         1 T2F      -0.094600
      8 C3          -7.6250    -9.1870    14.8280 ca         1 T2F      -0.077000
      9 C4          -8.2080   -10.1700    13.9870 cp         1 T2F      -0.057000
     10 C14         -8.2860    -8.4870    12.2220 ca         1 T2F      -0.054200
     11 N           -8.6680    -8.3510    10.8930 na         1 T2F      -0.238700
     12 C1          -7.7220    -7.4960    13.0510 ca         1 T2F      -0.069300
     13 C           -7.5040    -6.0740    12.5310 c3         1 T2F      -0.031800
     14 C5          -8.4650   -11.5550    14.4870 cp         1 T2F       0.019000
     15 C9          -9.9410   -13.5060    14.7210 ca         1 T2F      -0.110000
     16 C8          -8.9530   -14.1740    15.4610 ca         1 T2F       0.107000
     17 Cl          -9.2550   -15.7990    16.0630 cl         1 T2F      -0.250000
     18 C7          -7.7270   -13.5450    15.7260 ca         1 T2F      -0.110000
     19 C6          -7.4870   -12.2450    15.2450 ca         1 T2F      -0.100500
     20 H1         -10.4780   -11.6930    13.6830 ha         1 T2F       0.126500
     21 H2          -9.3360   -11.5390    11.5220 ha         1 T2F       0.189000
     22 H3          -9.5010    -9.7940     9.4680 h4         1 T2F       0.191000
     23 H5          -7.3670    -9.4530    15.8510 ha         1 T2F       0.125000
     24 H6          -8.6040    -7.5100    10.3270 hn         1 T2F       0.338000
     25 H7          -8.1700    -5.8340    11.6940 hc         1 T2F       0.036033
     26 H8          -7.7010    -5.3270    13.3080 hc         1 T2F       0.036033
     27 H9          -6.4730    -5.9380    12.1850 hc         1 T2F       0.036033
     28 H10        -10.8930   -13.9920    14.5230 ha         1 T2F       0.117000
     29 H11         -6.9640   -14.0630    16.3010 ha         1 T2F       0.117000
     30 H12         -6.5310   -11.7700    15.4510 ha         1 T2F       0.126500
     31 C15         -6.7390    -6.8880    15.3450 c          1 T2F       0.703600
@<TRIPOS>BOND
     1     1    14 ar  
     2     1    15 ar  
     3     1    20 1   
     4     2     3 1   
     5     2     9 ar  
     6     2    10 ar  
     7     3     4 2   
     8     3    21 1   
     9     4    11 1   
    10     4    22 1   
    11     5    31 1   
    12     6    31 1   
    13     7     8 ar  
    14     7    12 ar  
    15     7    31 1   
    16     8     9 ar  
    17     8    23 1   
    18     9    14 1   
    19    10    11 1   
    20    10    12 ar  
    21    11    24 1   
    22    12    13 1   
    23    13    25 1   
    24    13    26 1   
    25    13    27 1   
    26    14    19 ar  
    27    15    16 ar  
    28    15    28 1   
    29    16    17 1   
    30    16    18 ar  
    31    18    19 ar  
    32    18    29 1   
    33    19    30 1   
@<TRIPOS>SUBSTRUCTURE
     1 T2F         1 TEMP              0 ****  ****    0 ROOT
