@<TRIPOS>MOLECULE
T2F
   31    33     1     0     0
SMALL
abcg2


@<TRIPOS>ATOM
      1 C10         -9.6430   -12.2450    14.1730 ca         1 T2F      -0.100500
      2 C11         -8.5490    -9.8020    12.6510 ca         1 T2F      -0.096800
      3 C12         -9.0920   -10.4790    11.5060 cc         1 T2F      -0.248200
      4 C13         -9.1530    -9.5630    10.4880 cd         1 T2F      -0.195100
      5 O1          -5.7290    -6.3120    15.0010 o          1 T2F      -0.717000
      6 O           -7.2470    -6.9280    16.5310 o          1 T2F      -0.717000
      7 C2          -7.3910    -7.8950    14.3680 ca         1 T2F      -0.094600
      8 C3          -7.6670    -9.2110    14.7920 ca         1 T2F      -0.077000
      9 C4          -8.2260   -10.1820    13.9720 cp         1 T2F      -0.057000
     10 C14         -8.2870    -8.4660    12.2480 ca         1 T2F      -0.054200
     11 N           -8.6790    -8.3530    10.9320 na         1 T2F      -0.238700
     12 C1          -7.7060    -7.4920    13.0700 ca         1 T2F      -0.069300
     13 C           -7.4830    -6.1090    12.5230 c3         1 T2F      -0.031800
     14 C5          -8.4680   -11.5480    14.4810 cp         1 T2F       0.019000
     15 C9          -9.8770   -13.5220    14.6660 ca         1 T2F      -0.110000
     16 C8          -8.9240   -14.1170    15.4810 ca         1 T2F       0.107000
     17 CL          -9.2090   -15.7300    16.1050 cl         1 T2F      -0.250000
     18 C7          -7.7480   -13.4560    15.8080 ca         1 T2F      -0.110000
     19 C6          -7.5290   -12.1800    15.3060 ca         1 T2F      -0.100500
     20 H1         -10.3980   -11.7780    13.5570 ha         1 T2F       0.126500
     21 H2          -9.3990   -11.5080    11.4390 ha         1 T2F       0.189000
     22 H3          -9.4990    -9.6770     9.4740 h4         1 T2F       0.191000
     23 H5          -7.4410    -9.4620    15.8200 ha         1 T2F       0.125000
     24 H6          -8.5920    -7.5270    10.3640 hn         1 T2F       0.338000
     25 H7          -8.3690    -5.7590    11.9870 hc         1 T2F       0.036033
     26 H8          -7.2450    -5.4010    13.3110 hc         1 T2F       0.036033
     27 H9          -6.6530    -6.1000    11.8090 hc         1 T2F       0.036033
     28 H10        -10.7930   -14.0440    14.4260 ha         1 T2F       0.117000
     29 H11         -7.0100   -13.9340    16.4380 ha         1 T2F       0.117000
     30 H12         -6.6050   -11.6730    15.5480 ha         1 T2F       0.126500
     31 C15         -6.7380    -6.9600    15.3800 c          1 T2F       0.703600
@<TRIPOS>BOND
     1     1    14 ar  
     2     1    15 ar  
     3     1    20 1   
     4     2     3 1   
     5     2     9 ar  
     6     2    10 ar  
     7     3     4 2   
     8     3    21 1   
     9     4    11 1   
    10     4    22 1   
    11     5    31 1   
    12     6    31 1   
    13     7     8 ar  
    14     7    12 ar  
    15     7    31 1   
    16     8     9 ar  
    17     8    23 1   
    18     9    14 1   
    19    10    11 1   
    20    10    12 ar  
    21    11    24 1   
    22    12    13 1   
    23    13    25 1   
    24    13    26 1   
    25    13    27 1   
    26    14    19 ar  
    27    15    16 ar  
    28    15    28 1   
    29    16    17 1   
    30    16    18 ar  
    31    18    19 ar  
    32    18    29 1   
    33    19    30 1   
@<TRIPOS>SUBSTRUCTURE
     1 T2F         1 TEMP              0 ****  ****    0 ROOT
