@<TRIPOS>MOLECULE
T2G
   37    38     1     0     0
SMALL
No Charge or Current Charge


@<TRIPOS>ATOM
      1 N1          -3.0830     0.0590     0.0950 n          1 T2G      -0.416800
      2 C4           2.5640    -1.0890     0.9670 ca         1 T2G      -0.093000
      3 C5           2.1980    -0.6380    -0.3160 ca         1 T2G      -0.087300
      4 C6           0.9820    -1.2370    -1.0200 c3         1 T2G       0.217100
      5 C7          -1.4510    -1.6210    -0.9720 c6         1 T2G       0.144800
      6 C8          -2.7790    -1.3750    -0.2060 c6         1 T2G       0.097500
      7 C10         -0.5900     0.5500    -0.3340 c6         1 T2G       0.144800
      8 C13          2.9610     0.3700    -0.9390 ca         1 T2G      -0.110000
      9 N           -0.3030    -0.9090    -0.3570 n3         1 T2G      -0.723600
     10 C1           4.0820     0.9240    -0.2910 ca         1 T2G      -0.077300
     11 C11         -4.3750     0.4100     0.5490 c          1 T2G       0.608100
     12 C12         -4.6670     1.8730     0.8900 c3         1 T2G      -0.177100
     13 C2           4.4370     0.4660     0.9920 ca         1 T2G      -0.109000
     14 C3           3.6800    -0.5380     1.6190 ca         1 T2G      -0.113000
     15 C9          -1.8870     0.8900     0.4500 c6         1 T2G       0.097500
     16 H5           1.9780    -1.8620     1.4580 ha         1 T2G       0.127000
     17 H7           0.9640    -0.8960    -2.0640 h1         1 T2G       0.039700
     18 H6           1.1150    -2.3270    -1.0470 h1         1 T2G       0.039700
     19 H9          -1.2610    -2.7040    -0.9980 h1         1 T2G       0.042450
     20 H8          -1.5820    -1.2940    -2.0140 h1         1 T2G       0.042450
     21 H11         -2.7370    -1.9230     0.7460 h1         1 T2G       0.060700
     22 H10         -3.6000    -1.8100    -0.7920 h1         1 T2G       0.060700
     23 H15          0.2410     1.1050     0.1250 h1         1 T2G       0.042450
     24 H14         -0.6940     0.9270    -1.3620 h1         1 T2G       0.042450
     25 H18          2.6800     0.7250    -1.9280 ha         1 T2G       0.107000
     26 H1           4.4830     3.0060    -0.7470 hc         1 T2G       0.041367
     27 H2           5.9400     2.0040    -0.6330 hc         1 T2G       0.041367
     28 H            4.9010     1.8910    -2.0590 hc         1 T2G       0.041367
     29 H20         -4.3340     2.5100     0.0640 hc         1 T2G       0.059367
     30 H16         -5.7220     2.0440     1.1300 hc         1 T2G       0.059367
     31 H17         -4.0200     2.1870     1.7160 hc         1 T2G       0.059367
     32 H3           5.2980     0.8900     1.5040 ha         1 T2G       0.110000
     33 H4           3.9570    -0.8880     2.6110 ha         1 T2G       0.112000
     34 H13         -2.1020     1.9550     0.2870 h1         1 T2G       0.060700
     35 H12         -1.6870     0.7620     1.5230 h1         1 T2G       0.060700
     36 C            4.8960     2.0150    -0.9690 c3         1 T2G      -0.045800
     37 O           -5.2680    -0.4250     0.6150 o          1 T2G      -0.608100
@<TRIPOS>BOND
     1     1     6 1   
     2     1    11 1   
     3     1    15 1   
     4     2     3 ar  
     5     2    14 ar  
     6     2    16 1   
     7     3     4 1   
     8     3     8 ar  
     9     4     9 1   
    10     4    17 1   
    11     4    18 1   
    12     5     6 1   
    13     5     9 1   
    14     5    19 1   
    15     5    20 1   
    16     6    21 1   
    17     6    22 1   
    18     7     9 1   
    19     7    15 1   
    20     7    23 1   
    21     7    24 1   
    22     8    10 ar  
    23     8    25 1   
    24    10    13 ar  
    25    10    36 1   
    26    11    12 1   
    27    11    37 2   
    28    12    29 1   
    29    12    30 1   
    30    12    31 1   
    31    13    14 ar  
    32    13    32 1   
    33    14    33 1   
    34    15    34 1   
    35    15    35 1   
    36    26    36 1   
    37    27    36 1   
    38    28    36 1   
@<TRIPOS>SUBSTRUCTURE
     1 T2G         1 TEMP              0 ****  ****    0 ROOT
