@<TRIPOS>MOLECULE
T2G
   37    38     1     0     0
SMALL
abcg2


@<TRIPOS>ATOM
      1 N1          -3.0270    -0.1850     0.4680 n          1 T2G      -0.416800
      2 C4           2.3030    -0.7340     0.9010 ca         1 T2G      -0.093000
      3 C5           2.0590    -0.3410    -0.4120 ca         1 T2G      -0.087300
      4 C6           0.8160    -0.7970    -1.1340 c3         1 T2G       0.217100
      5 C7          -1.4720    -1.4910    -0.8770 c6         1 T2G       0.144800
      6 C8          -2.6430    -1.5320     0.0900 c6         1 T2G       0.097500
      7 C10         -0.7570     0.5890     0.0480 c6         1 T2G       0.144800
      8 C13          3.0010     0.4460    -1.0630 ca         1 T2G      -0.110000
      9 N           -0.3610    -0.7630    -0.2940 n3         1 T2G      -0.723600
     10 C1           4.1840     0.8440    -0.4410 ca         1 T2G      -0.077300
     11 C11         -4.2550     0.3050     0.1890 c          1 T2G       0.608100
     12 C12         -4.5330     1.7420     0.5700 c3         1 T2G      -0.177100
     13 C2           4.4080     0.4380     0.8710 ca         1 T2G      -0.109000
     14 C3           3.4720    -0.3430     1.5370 ca         1 T2G      -0.113000
     15 C9          -1.9210     0.5700     1.0240 c6         1 T2G       0.097500
     16 H5           1.5730    -1.3390     1.4240 ha         1 T2G       0.127000
     17 H7           0.6900    -0.2030    -2.0550 h1         1 T2G       0.039700
     18 H6           0.9620    -1.8310    -1.4610 h1         1 T2G       0.039700
     19 H9          -1.1540    -2.5130    -1.0930 h1         1 T2G       0.042450
     20 H8          -1.8050    -1.0440    -1.8290 h1         1 T2G       0.042450
     21 H11         -2.3520    -2.0820     0.9900 h1         1 T2G       0.060700
     22 H10         -3.4880    -2.0460    -0.3600 h1         1 T2G       0.060700
     23 H15          0.0820     1.1090     0.5140 h1         1 T2G       0.042450
     24 H14         -1.0470     1.1680    -0.8460 h1         1 T2G       0.042450
     25 H18          2.8090     0.7620    -2.0840 ha         1 T2G       0.107000
     26 H1           5.0050     2.7710    -0.9300 hc         1 T2G       0.041367
     27 H2           6.1970     1.4840    -0.8670 hc         1 T2G       0.041367
     28 H            5.0980     1.6040    -2.2400 hc         1 T2G       0.041367
     29 H20         -3.8710     2.4370     0.0530 hc         1 T2G       0.059367
     30 H16         -5.5580     1.9850     0.3030 hc         1 T2G       0.059367
     31 H17         -4.4090     1.9100     1.6410 hc         1 T2G       0.059367
     32 H3           5.3190     0.7360     1.3780 ha         1 T2G       0.110000
     33 H4           3.6600    -0.6520     2.5570 ha         1 T2G       0.112000
     34 H13         -2.2200     1.5870     1.2600 h1         1 T2G       0.060700
     35 H12         -1.6030     0.0970     1.9590 h1         1 T2G       0.060700
     36 C            5.1730     1.7170    -1.1590 c3         1 T2G      -0.045800
     37 O           -5.1220    -0.3780    -0.3420 o          1 T2G      -0.608100
@<TRIPOS>BOND
     1     1     6 1   
     2     1    11 1   
     3     1    15 1   
     4     2     3 ar  
     5     2    14 ar  
     6     2    16 1   
     7     3     4 1   
     8     3     8 ar  
     9     4     9 1   
    10     4    17 1   
    11     4    18 1   
    12     5     6 1   
    13     5     9 1   
    14     5    19 1   
    15     5    20 1   
    16     6    21 1   
    17     6    22 1   
    18     7     9 1   
    19     7    15 1   
    20     7    23 1   
    21     7    24 1   
    22     8    10 ar  
    23     8    25 1   
    24    10    13 ar  
    25    10    36 1   
    26    11    12 1   
    27    11    37 2   
    28    12    29 1   
    29    12    30 1   
    30    12    31 1   
    31    13    14 ar  
    32    13    32 1   
    33    14    33 1   
    34    15    34 1   
    35    15    35 1   
    36    26    36 1   
    37    27    36 1   
    38    28    36 1   
@<TRIPOS>SUBSTRUCTURE
     1 T2G         1 TEMP              0 ****  ****    0 ROOT
