@<TRIPOS>MOLECULE
T2H
   26    27     1     0     0
SMALL
bcc


@<TRIPOS>ATOM
      1 C10         -0.3440   -11.0950     8.0960 cc         1 T2H       0.463900
      2 N12         -0.9700   -12.9680     9.1090 nd         1 T2H      -0.410000
      3 C13         -2.1310   -12.3810     9.0220 cc         1 T2H       0.666300
      4 C01         -1.0000    -5.3670     4.7760 c3         1 T2H      -0.095100
      5 C02         -0.8450    -6.6580     5.5430 c3         1 T2H       0.141400
      6 C04          0.9360    -8.0630     6.2800 ca         1 T2H       0.146100
      7 C05          2.3130    -8.2880     6.3390 ca         1 T2H      -0.152000
      8 C06          2.7990    -9.4210     6.9660 ca         1 T2H      -0.099000
      9 C07          1.9390   -10.3450     7.5400 ca         1 T2H      -0.123000
     10 C08          0.5640   -10.1250     7.4860 ca         1 T2H      -0.093500
     11 C09          0.0650    -8.9850     6.8530 ca         1 T2H      -0.208000
     12 N11          0.0230   -12.2290     8.5850 nd         1 T2H      -0.293000
     13 N15         -3.2750   -12.8840     9.5180 nv         1 T2H      -0.934500
     14 S14         -2.0610   -10.8250     8.2590 ss         1 T2H      -0.338800
     15 H1          -2.0590    -5.1280     4.6840 hc         1 T2H       0.048033
     16 H2          -0.5130    -4.5370     5.2870 hc         1 T2H       0.048033
     17 H3          -0.5860    -5.4490     3.7710 hc         1 T2H       0.048033
     18 H4          -1.2940    -6.5670     6.5380 h1         1 T2H       0.033700
     19 H5          -1.3580    -7.4740     5.0220 h1         1 T2H       0.033700
     20 H6           2.9910    -7.5710     5.8930 ha         1 T2H       0.147000
     21 H7           3.8670    -9.5870     7.0090 ha         1 T2H       0.137000
     22 H8           2.3310   -11.2240     8.0320 ha         1 T2H       0.158000
     23 H9          -1.0040    -8.8210     6.8050 ha         1 T2H       0.134000
     24 H10         -4.1580   -12.5380     9.1840 hn         1 T2H       0.433800
     25 H11         -3.2650   -13.8580     9.7790 hn         1 T2H       0.433800
     26 O03          0.5430    -6.9410     5.6540 os         1 T2H      -0.324900
@<TRIPOS>BOND
     1     1    10 1   
     2     1    12 2   
     3     1    14 1   
     4     2     3 2   
     5     2    12 1   
     6     3    13 1   
     7     3    14 1   
     8     4     5 1   
     9     4    15 1   
    10     4    16 1   
    11     4    17 1   
    12     5    18 1   
    13     5    19 1   
    14     5    26 1   
    15     6     7 ar  
    16     6    11 ar  
    17     6    26 1   
    18     7     8 ar  
    19     7    20 1   
    20     8     9 ar  
    21     8    21 1   
    22     9    10 ar  
    23     9    22 1   
    24    10    11 ar  
    25    11    23 1   
    26    13    24 1   
    27    13    25 1   
@<TRIPOS>SUBSTRUCTURE
     1 T2H         1 TEMP              0 ****  ****    0 ROOT
