@<TRIPOS>MOLECULE
T2H
   26    27     1     0     0
SMALL
No Charge or Current Charge


@<TRIPOS>ATOM
      1 C10         -0.3560   -11.1260     8.1790 cc         1 T2H       0.463900
      2 N12         -0.9780   -12.9640     9.3240 nd         1 T2H      -0.410000
      3 C13         -2.1290   -12.3880     9.0720 cc         1 T2H       0.666300
      4 C01         -1.0000    -5.2830     4.7490 c3         1 T2H      -0.095100
      5 C02         -0.8950    -6.6040     5.5280 c3         1 T2H       0.164600
      6 C04          0.9400    -8.0820     6.2650 ca         1 T2H       0.146100
      7 C05          2.3220    -8.3170     6.2980 ca         1 T2H      -0.134000
      8 C06          2.8290    -9.4570     6.9380 ca         1 T2H      -0.081000
      9 C07          1.9540   -10.3700     7.5490 ca         1 T2H      -0.105000
     10 C08          0.5540   -10.1570     7.5310 ca         1 T2H      -0.093500
     11 C09          0.0590    -9.0000     6.8800 ca         1 T2H      -0.190000
     12 N11          0.0680   -12.2240     8.8010 nd         1 T2H      -0.293000
     13 N15         -3.2840   -12.9330     9.4820 nv         1 T2H      -1.044900
     14 S14         -2.0910   -10.9160     8.1850 ss         1 T2H      -0.338800
     15 H1          -2.0500    -4.9830     4.6520 hc         1 T2H       0.048033
     16 H2          -0.4600    -4.4840     5.2700 hc         1 T2H       0.048033
     17 H3          -0.5790    -5.3940     3.7430 hc         1 T2H       0.048033
     18 H4          -1.3330    -6.4750     6.5260 h1         1 T2H       0.033700
     19 H5          -1.4520    -7.3860     4.9950 h1         1 T2H       0.033700
     20 H6           3.0000    -7.6120     5.8250 ha         1 T2H       0.129000
     21 H7           3.9020    -9.6350     6.9600 ha         1 T2H       0.119000
     22 H8           2.3750   -11.2460     8.0380 ha         1 T2H       0.140000
     23 H9          -1.0100    -8.8170     6.8550 ha         1 T2H       0.116000
     24 H10         -4.1270   -12.6210     9.0130 hn         1 T2H       0.489000
     25 H11         -3.2500   -13.9110     9.7500 hn         1 T2H       0.489000
     26 O03          0.4990    -6.9440     5.6210 os         1 T2H      -0.348100
@<TRIPOS>BOND
     1     1    10 1   
     2     1    12 2   
     3     1    14 1   
     4     2     3 2   
     5     2    12 1   
     6     3    13 1   
     7     3    14 1   
     8     4     5 1   
     9     4    15 1   
    10     4    16 1   
    11     4    17 1   
    12     5    18 1   
    13     5    19 1   
    14     5    26 1   
    15     6     7 ar  
    16     6    11 ar  
    17     6    26 1   
    18     7     8 ar  
    19     7    20 1   
    20     8     9 ar  
    21     8    21 1   
    22     9    10 ar  
    23     9    22 1   
    24    10    11 ar  
    25    11    23 1   
    26    13    24 1   
    27    13    25 1   
@<TRIPOS>SUBSTRUCTURE
     1 T2H         1 TEMP              0 ****  ****    0 ROOT
