@<TRIPOS>MOLECULE
T2I
   59    63     1     0     0
SMALL
abcg2


@<TRIPOS>ATOM
      1 C10          1.5850    -2.7590    83.8570 ca         1 T2I      -0.170600
      2 C13          1.1390    -1.4110    85.8070 ca         1 T2I      -0.180000
      3 C15         -0.6930    -2.2320    84.4390 ca         1 T2I      -0.210600
      4 C21         -2.1380    -2.3000    84.2000 c          1 T2I       0.592600
      5 C26         -5.0880    -2.8220    85.5870 ca         1 T2I      -0.074300
      6 C28         -5.0670    -4.8340    86.9470 ca         1 T2I      -0.101000
      7 C1           5.2540    -6.1380    82.7680 c6         1 T2I      -0.074200
      8 C2           5.2160    -6.5220    84.2410 c6         1 T2I      -0.063400
      9 C3           3.7710    -6.6530    84.6990 c6         1 T2I      -0.182400
     10 C4           2.9220    -5.4310    84.4090 c          1 T2I       0.605300
     11 C5           3.3320    -4.5620    83.2940 ce         1 T2I      -0.488400
     12 C6           4.4070    -4.9450    82.4880 c2         1 T2I       0.285900
     13 C9           2.6260    -3.3420    82.9550 c          1 T2I       0.638900
     14 C12          2.0290    -2.0330    84.9590 ca         1 T2I      -0.008000
     15 C14         -0.2340    -1.5090    85.5590 ca         1 T2I       0.137600
     16 C16          0.2270    -2.8750    83.5750 ca         1 T2I       0.077700
     17 C19         -2.4940    -0.9570    86.2540 c          1 T2I       0.618000
     18 C27         -4.4020    -3.7620    86.3150 ca         1 T2I      -0.093000
     19 C29         -6.4260    -4.9600    86.8480 ca         1 T2I      -0.101000
     20 C30         -7.1790    -4.0160    86.1060 ca         1 T2I      -0.035000
     21 C31         -6.5060    -2.9310    85.4620 ca         1 T2I      -0.024000
     22 C32         -8.5860    -4.1250    85.9870 ca         1 T2I      -0.097000
     23 C33         -9.3070    -3.2090    85.2650 ca         1 T2I      -0.109000
     24 C34         -8.6460    -2.1380    84.6270 ca         1 T2I      -0.107000
     25 C35         -7.2830    -2.0030    84.7230 ca         1 T2I      -0.102000
     26 N18         -1.1340    -0.9000    86.4280 n          1 T2I      -0.306000
     27 N20         -2.9430    -1.6320    85.1250 n          1 T2I      -0.377400
     28 O7           4.7390    -4.2710    81.4220 oh         1 T2I      -0.541100
     29 O11          2.9090    -2.6970    81.9230 o          1 T2I      -0.596100
     30 O24         -2.6680    -2.8860    83.2670 o          1 T2I      -0.523000
     31 O25         -3.2860    -0.4480    87.0350 o          1 T2I      -0.554000
     32 H1           1.5130    -0.8580    86.6530 ha         1 T2I       0.126000
     33 H2          -0.9020    -4.4890    82.7160 hc         1 T2I       0.060700
     34 H3          -0.7220    -3.1140    81.6530 hc         1 T2I       0.060700
     35 H4           0.6510    -4.1890    81.9300 hc         1 T2I       0.060700
     36 H5          -1.4850     0.2020    88.1490 h1         1 T2I       0.059367
     37 H6          -0.0620    -0.8550    88.2390 h1         1 T2I       0.059367
     38 H7           0.0010     0.6480    87.2890 h1         1 T2I       0.059367
     39 H8          -4.4910    -5.5550    87.5130 ha         1 T2I       0.113000
     40 H9           4.8680    -6.9590    82.1520 hc         1 T2I       0.081700
     41 H10          6.2650    -5.9270    82.4150 hc         1 T2I       0.081700
     42 H11          5.7510    -7.4590    84.3940 hc         1 T2I       0.057200
     43 H12          5.7250    -5.7550    84.8310 hc         1 T2I       0.057200
     44 H13          3.6930    -6.8580    85.7670 hc         1 T2I       0.073700
     45 H14          3.2910    -7.4910    84.1770 hc         1 T2I       0.073700
     46 H17          3.0910    -1.9630    85.1620 ha         1 T2I       0.120000
     47 H18         -4.7900    -0.7220    85.2750 h1         1 T2I       0.082200
     48 H19         -4.5490    -1.7100    83.8360 h1         1 T2I       0.082200
     49 H20         -3.3270    -3.6890    86.4150 ha         1 T2I       0.112000
     50 H21         -6.9470    -5.7780    87.3310 ha         1 T2I       0.112000
     51 H22         -9.0830    -4.9520    86.4800 ha         1 T2I       0.111000
     52 H23        -10.3820    -3.3030    85.1830 ha         1 T2I       0.112000
     53 H24         -9.2200    -1.4180    84.0580 ha         1 T2I       0.111000
     54 H25         -6.8000    -1.1740    84.2250 ha         1 T2I       0.110000
     55 H26          4.0720    -3.5010    81.3510 ho         1 T2I       0.549000
     56 C17         -0.2060    -3.7130    82.4020 c3         1 T2I      -0.055800
     57 C22         -0.6330    -0.1810    87.6010 c3         1 T2I       0.085300
     58 C23         -4.3890    -1.6640    84.9110 c3         1 T2I       0.144300
     59 O8           1.9090    -5.2320    85.0680 o          1 T2I      -0.538100
@<TRIPOS>BOND
     1     1    13 1   
     2     1    14 ar  
     3     1    16 ar  
     4     2    14 ar  
     5     2    15 ar  
     6     2    32 1   
     7     3     4 1   
     8     3    15 ar  
     9     3    16 ar  
    10     4    27 1   
    11     4    30 2   
    12     5    18 ar  
    13     5    21 ar  
    14     5    58 1   
    15     6    18 ar  
    16     6    19 ar  
    17     6    39 1   
    18     7     8 1   
    19     7    12 1   
    20     7    40 1   
    21     7    41 1   
    22     8     9 1   
    23     8    42 1   
    24     8    43 1   
    25     9    10 1   
    26     9    44 1   
    27     9    45 1   
    28    10    11 1   
    29    10    59 2   
    30    11    12 2   
    31    11    13 1   
    32    12    28 1   
    33    13    29 2   
    34    14    46 1   
    35    15    26 1   
    36    16    56 1   
    37    17    26 1   
    38    17    27 1   
    39    17    31 2   
    40    18    49 1   
    41    19    20 ar  
    42    19    50 1   
    43    20    21 ar  
    44    20    22 ar  
    45    21    25 ar  
    46    22    23 ar  
    47    22    51 1   
    48    23    24 ar  
    49    23    52 1   
    50    24    25 ar  
    51    24    53 1   
    52    25    54 1   
    53    26    57 1   
    54    27    58 1   
    55    28    55 1   
    56    33    56 1   
    57    34    56 1   
    58    35    56 1   
    59    36    57 1   
    60    37    57 1   
    61    38    57 1   
    62    47    58 1   
    63    48    58 1   
@<TRIPOS>SUBSTRUCTURE
     1 T2I         1 TEMP              0 ****  ****    0 ROOT
