@<TRIPOS>MOLECULE
T2I
   59    63     1     0     0
SMALL
No Charge or Current Charge


@<TRIPOS>ATOM
      1 C10          1.3490    -3.3320    83.5930 ca         1 T2I      -0.170600
      2 C13          1.1950    -2.0140    85.6260 ca         1 T2I      -0.180000
      3 C15         -0.8260    -2.4290    84.3280 ca         1 T2I      -0.210600
      4 C21         -2.3230    -2.2250    84.1870 c          1 T2I       0.592600
      5 C26         -5.2870    -2.6800    85.6800 ca         1 T2I      -0.074300
      6 C28         -5.3450    -4.8780    86.7660 ca         1 T2I      -0.101000
      7 C1           5.8520    -5.4540    83.0830 c6         1 T2I      -0.074200
      8 C2           5.7020    -5.9050    84.5510 c6         1 T2I      -0.063400
      9 C3           4.3520    -6.6280    84.7330 c6         1 T2I      -0.182400
     10 C4           3.1670    -5.7610    84.2940 c          1 T2I       0.605300
     11 C5           3.3740    -4.8800    83.1100 ce         1 T2I      -0.488400
     12 C6           4.6080    -4.7430    82.5750 c2         1 T2I       0.285900
     13 C9           2.2440    -4.0520    82.6150 c          1 T2I       0.638900
     14 C12          1.9550    -2.7380    84.7100 ca         1 T2I      -0.008000
     15 C14         -0.1840    -1.8060    85.4210 ca         1 T2I       0.137600
     16 C16         -0.0560    -3.2200    83.4100 ca         1 T2I       0.077700
     17 C19         -2.3640    -1.0460    86.3580 c          1 T2I       0.618000
     18 C27         -4.6240    -3.7750    86.2840 ca         1 T2I      -0.093000
     19 C29         -6.7410    -4.9080    86.6540 ca         1 T2I      -0.101000
     20 C30         -7.4230    -3.8310    86.0620 ca         1 T2I      -0.035000
     21 C31         -6.7050    -2.7110    85.5730 ca         1 T2I      -0.024000
     22 C32         -8.8270    -3.8780    85.9620 ca         1 T2I      -0.097000
     23 C33         -9.5310    -2.8140    85.3780 ca         1 T2I      -0.109000
     24 C34         -8.8320    -1.7000    84.8920 ca         1 T2I      -0.107000
     25 C35         -7.4310    -1.6450    84.9870 ca         1 T2I      -0.102000
     26 N18         -0.9600    -1.0960    86.4010 n          1 T2I      -0.306000
     27 N20         -2.9970    -1.5930    85.2400 n          1 T2I      -0.377400
     28 O7           4.8550    -3.9610    81.5200 oh         1 T2I      -0.541100
     29 O11          2.2130    -3.7620    81.4250 o          1 T2I      -0.596100
     30 O24         -2.9400    -2.5670    83.1880 o          1 T2I      -0.523000
     31 O25         -3.0100    -0.5240    87.2580 o          1 T2I      -0.554000
     32 H1           1.7110    -1.6020    86.4870 ha         1 T2I       0.126000
     33 H2          -1.5970    -4.5660    82.6360 hc         1 T2I       0.060700
     34 H3          -1.0340    -3.3570    81.4580 hc         1 T2I       0.060700
     35 H4          -0.0770    -4.7900    81.8440 hc         1 T2I       0.060700
     36 H5          -0.9280     0.4120    87.9430 h1         1 T2I       0.059367
     37 H6           0.1260    -0.9980    88.2270 h1         1 T2I       0.059367
     38 H7           0.5690     0.2500    87.0220 h1         1 T2I       0.059367
     39 H8          -4.8200    -5.7110    87.2260 ha         1 T2I       0.113000
     40 H9           6.0460    -6.3260    82.4440 hc         1 T2I       0.081700
     41 H10          6.7290    -4.7990    82.9880 hc         1 T2I       0.081700
     42 H11          6.5340    -6.5640    84.8350 hc         1 T2I       0.057200
     43 H12          5.7460    -5.0320    85.2170 hc         1 T2I       0.057200
     44 H13          4.1930    -7.0000    85.7540 hc         1 T2I       0.073700
     45 H14          4.3610    -7.4960    84.0600 hc         1 T2I       0.073700
     46 H17          3.0270    -2.8320    84.8710 ha         1 T2I       0.120000
     47 H18         -4.8180    -0.5800    85.6870 h1         1 T2I       0.082200
     48 H19         -4.7670    -1.3060    84.1050 h1         1 T2I       0.082200
     49 H20         -3.5430    -3.7880    86.3900 ha         1 T2I       0.112000
     50 H21         -7.2910    -5.7670    87.0310 ha         1 T2I       0.112000
     51 H22         -9.3750    -4.7390    86.3390 ha         1 T2I       0.111000
     52 H23        -10.6150    -2.8540    85.3030 ha         1 T2I       0.112000
     53 H24         -9.3780    -0.8740    84.4400 ha         1 T2I       0.111000
     54 H25         -6.9300    -0.7620    84.6000 ha         1 T2I       0.110000
     55 H26          3.9580    -3.6850    81.2010 ho         1 T2I       0.549000
     56 C17         -0.7210    -4.0170    82.2750 c3         1 T2I      -0.055800
     57 C22         -0.2630    -0.3140    87.4610 c3         1 T2I       0.085300
     58 C23         -4.4850    -1.4790    85.1510 c3         1 T2I       0.144300
     59 O8           2.1020    -5.8280    84.8880 o          1 T2I      -0.538100
@<TRIPOS>BOND
     1     1    13 1   
     2     1    14 ar  
     3     1    16 ar  
     4     2    14 ar  
     5     2    15 ar  
     6     2    32 1   
     7     3     4 1   
     8     3    15 ar  
     9     3    16 ar  
    10     4    27 1   
    11     4    30 2   
    12     5    18 ar  
    13     5    21 ar  
    14     5    58 1   
    15     6    18 ar  
    16     6    19 ar  
    17     6    39 1   
    18     7     8 1   
    19     7    12 1   
    20     7    40 1   
    21     7    41 1   
    22     8     9 1   
    23     8    42 1   
    24     8    43 1   
    25     9    10 1   
    26     9    44 1   
    27     9    45 1   
    28    10    11 1   
    29    10    59 2   
    30    11    12 2   
    31    11    13 1   
    32    12    28 1   
    33    13    29 2   
    34    14    46 1   
    35    15    26 1   
    36    16    56 1   
    37    17    26 1   
    38    17    27 1   
    39    17    31 2   
    40    18    49 1   
    41    19    20 ar  
    42    19    50 1   
    43    20    21 ar  
    44    20    22 ar  
    45    21    25 ar  
    46    22    23 ar  
    47    22    51 1   
    48    23    24 ar  
    49    23    52 1   
    50    24    25 ar  
    51    24    53 1   
    52    25    54 1   
    53    26    57 1   
    54    27    58 1   
    55    28    55 1   
    56    33    56 1   
    57    34    56 1   
    58    35    56 1   
    59    36    57 1   
    60    37    57 1   
    61    38    57 1   
    62    47    58 1   
    63    48    58 1   
@<TRIPOS>SUBSTRUCTURE
     1 T2I         1 TEMP              0 ****  ****    0 ROOT
