@<TRIPOS>MOLECULE
T2J
   33    34     1     0     0
SMALL
abcg2


@<TRIPOS>ATOM
      1 N1          -0.0300     0.1450     0.1050 nh         1 T2J      -0.777400
      2 C4          -1.6070     2.0060     0.3610 ca         1 T2J      -0.152000
      3 C5          -1.3350     0.6700     0.0670 ca         1 T2J       0.306000
      4 C6           0.7670     0.5390     1.2570 c6         1 T2J       0.167300
      5 C7           2.0060    -0.3390     1.3270 c6         1 T2J       0.097500
      6 C8           1.9680    -0.5590    -1.0850 c6         1 T2J       0.097500
      7 C           -2.4360    -0.1480    -0.2160 ca         1 T2J      -0.159200
      8 O           -3.0140    -2.3260     0.0860 o          1 T2J      -0.393500
      9 C1          -3.7380     0.3310    -0.2090 ca         1 T2J      -0.052000
     10 C11          4.7490     0.2130    -1.2570 c3         1 T2J      -0.176100
     11 C2          -3.9700     1.6670     0.0600 ca         1 T2J      -0.120000
     12 C3          -2.9000     2.5020     0.3540 ca         1 T2J      -0.064000
     13 C9           0.7210     0.3070    -1.1330 c6         1 T2J       0.167300
     14 N2           2.7580    -0.2430     0.0900 n          1 T2J      -0.419800
     15 O1          -1.3910    -1.9120    -1.2390 o          1 T2J      -0.393500
     16 O2           4.6740     0.3510     1.1200 o          1 T2J      -0.607100
     17 H3          -0.7840     2.6690     0.5970 ha         1 T2J       0.127000
     18 H5           1.0850     1.5920     1.2160 h1         1 T2J       0.047700
     19 H4           0.1800     0.4040     2.1660 h1         1 T2J       0.047700
     20 H7           2.6320    -0.0330     2.1590 h1         1 T2J       0.066950
     21 H6           1.7070    -1.3790     1.4910 h1         1 T2J       0.066950
     22 H9           1.6710    -1.6110    -1.0480 h1         1 T2J       0.066950
     23 H8           2.5440    -0.4130    -1.9940 h1         1 T2J       0.066950
     24 H           -4.5660    -0.3320    -0.4220 ha         1 T2J       0.146000
     25 H15          4.2730     0.9520    -1.9030 hc         1 T2J       0.060367
     26 H13          5.7820     0.5110    -1.1030 hc         1 T2J       0.060367
     27 H12          4.7420    -0.7390    -1.7880 hc         1 T2J       0.060367
     28 H1          -4.9810     2.0500     0.0520 ha         1 T2J       0.130000
     29 H2          -3.0730     3.5470     0.5740 ha         1 T2J       0.125000
     30 H11          0.1100     0.0050    -1.9800 h1         1 T2J       0.047700
     31 H10          1.0090     1.3590    -1.2890 h1         1 T2J       0.047700
     32 C10          4.0620     0.1150     0.0850 c          1 T2J       0.608100
     33 N           -2.2590    -1.5650    -0.4760 no         1 T2J       0.701200
@<TRIPOS>BOND
     1     1     3 1   
     2     1     4 1   
     3     1    13 1   
     4     2     3 ar  
     5     2    12 ar  
     6     2    17 1   
     7     3     7 ar  
     8     4     5 1   
     9     4    18 1   
    10     4    19 1   
    11     5    14 1   
    12     5    20 1   
    13     5    21 1   
    14     6    13 1   
    15     6    14 1   
    16     6    22 1   
    17     6    23 1   
    18     7     9 ar  
    19     7    33 1   
    20     8    33 1   
    21     9    11 ar  
    22     9    24 1   
    23    10    25 1   
    24    10    26 1   
    25    10    27 1   
    26    10    32 1   
    27    11    12 ar  
    28    11    28 1   
    29    12    29 1   
    30    13    30 1   
    31    13    31 1   
    32    14    32 1   
    33    15    33 1   
    34    16    32 2   
@<TRIPOS>SUBSTRUCTURE
     1 T2J         1 TEMP              0 ****  ****    0 ROOT
