@<TRIPOS>MOLECULE
T2J
   33    34     1     0     0
SMALL
No Charge or Current Charge


@<TRIPOS>ATOM
      1 N1          -0.0470     0.2700     0.0630 nh         1 T2J      -0.777400
      2 C4          -1.6320     2.1040     0.2220 ca         1 T2J      -0.152000
      3 C5          -1.3760     0.7330     0.0410 ca         1 T2J       0.306000
      4 C6           0.7640     0.4300     1.3070 c6         1 T2J       0.167300
      5 C7           1.9870    -0.5290     1.3200 c6         1 T2J       0.097500
      6 C8           1.9870    -0.5910    -1.1500 c6         1 T2J       0.097500
      7 C           -2.4570    -0.1520    -0.1310 ca         1 T2J      -0.159200
      8 O           -2.8520    -2.3740     0.4080 o          1 T2J      -0.393500
      9 C1          -3.7830     0.3330    -0.1040 ca         1 T2J      -0.052000
     10 C11          4.8750     0.2990    -1.2170 c3         1 T2J      -0.176100
     11 C2          -4.0260     1.7050     0.0760 ca         1 T2J      -0.120000
     12 C3          -2.9500     2.5930     0.2370 ca         1 T2J      -0.064000
     13 C9           0.7650     0.3680    -1.1850 c6         1 T2J       0.167300
     14 N2           2.8040    -0.3890     0.0820 n          1 T2J      -0.419800
     15 O1          -1.6270    -1.9550    -1.3490 o          1 T2J      -0.393500
     16 O2           4.6120     0.5500     1.1440 o          1 T2J      -0.607100
     17 H3          -0.8030     2.7930     0.3540 ha         1 T2J       0.127000
     18 H5           1.1240     1.4660     1.3900 h1         1 T2J       0.047700
     19 H4           0.1450     0.2240     2.1930 h1         1 T2J       0.047700
     20 H7           2.5880    -0.3390     2.2190 h1         1 T2J       0.066950
     21 H6           1.6250    -1.5650     1.3890 h1         1 T2J       0.066950
     22 H9           1.6200    -1.6270    -1.1620 h1         1 T2J       0.066950
     23 H8           2.5760    -0.4550    -2.0660 h1         1 T2J       0.066950
     24 H           -4.6220    -0.3500    -0.2290 ha         1 T2J       0.146000
     25 H15          4.3330     0.9670    -1.8960 hc         1 T2J       0.060367
     26 H13          5.9020     0.6480    -1.0650 hc         1 T2J       0.060367
     27 H12          4.8480    -0.6620    -1.7420 hc         1 T2J       0.060367
     28 H1          -5.0470     2.0800     0.0920 ha         1 T2J       0.130000
     29 H2          -3.1360     3.6560     0.3780 ha         1 T2J       0.125000
     30 H11          0.1480     0.1220    -2.0620 h1         1 T2J       0.047700
     31 H10          1.1250     1.4000    -1.3160 h1         1 T2J       0.047700
     32 C10          4.0960     0.1850     0.0950 c          1 T2J       0.608100
     33 N           -2.2120    -1.5980    -0.3160 no         1 T2J       0.701200
@<TRIPOS>BOND
     1     1     3 1   
     2     1     4 1   
     3     1    13 1   
     4     2     3 ar  
     5     2    12 ar  
     6     2    17 1   
     7     3     7 ar  
     8     4     5 1   
     9     4    18 1   
    10     4    19 1   
    11     5    14 1   
    12     5    20 1   
    13     5    21 1   
    14     6    13 1   
    15     6    14 1   
    16     6    22 1   
    17     6    23 1   
    18     7     9 ar  
    19     7    33 1   
    20     8    33 1   
    21     9    11 ar  
    22     9    24 1   
    23    10    25 1   
    24    10    26 1   
    25    10    27 1   
    26    10    32 1   
    27    11    12 ar  
    28    11    28 1   
    29    12    29 1   
    30    13    30 1   
    31    13    31 1   
    32    14    32 1   
    33    15    33 1   
    34    16    32 2   
@<TRIPOS>SUBSTRUCTURE
     1 T2J         1 TEMP              0 ****  ****    0 ROOT
