@<TRIPOS>MOLECULE
T2K
   36    38     1     0     0
SMALL
No Charge or Current Charge


@<TRIPOS>ATOM
      1 C2          17.9270     7.3750    25.3950 c3         1 T2K      -0.092700
      2 O2          19.6330     9.9230    26.2930 o          1 T2K      -0.734500
      3 C4          17.2020     3.9960    26.2710 cc         1 T2K       0.323500
      4 C5          16.8230     2.8980    27.1650 ca         1 T2K      -0.107500
      5 C6          17.3410     2.8400    28.4750 ca         1 T2K      -0.085500
      6 C           19.6280     9.2500    25.2740 c          1 T2K       0.720000
      7 O           19.7010     9.7200    24.1500 o          1 T2K      -0.734500
      8 C1          19.4380     7.7320    25.4110 c3         1 T2K      -0.209400
      9 C3          17.6600     5.8990    25.5200 cd         1 T2K       0.497300
     10 O1          17.7710     5.0930    24.4170 os         1 T2K      -0.266000
     11 C11         17.4840     3.8660    24.9310 cd         1 T2K       0.112500
     12 C12         17.7610     2.7000    24.0580 ca         1 T2K      -0.073500
     13 C17         17.7600     2.8660    22.6540 ca         1 T2K      -0.086500
     14 C16         18.0230     1.7810    21.8010 ca         1 T2K       0.121000
     15 Cl1         17.9990     2.0120    20.0580 cl         1 T2K      -0.203000
     16 C15         18.3030     0.5150    22.3330 ca         1 T2K      -0.107000
     17 C14         18.3290     0.3410    23.7230 ca         1 T2K       0.121000
     18 Cl          18.7050    -1.2390    24.3990 cl         1 T2K      -0.203000
     19 C13         18.0670     1.4220    24.5810 ca         1 T2K      -0.086500
     20 N           17.3200     5.2980    26.6550 nc         1 T2K      -0.689000
     21 C10         15.8520     1.9510    26.7700 ca         1 T2K      -0.085500
     22 C9          15.4570     0.9280    27.6490 ca         1 T2K      -0.121000
     23 C8          16.0070     0.8560    28.9390 ca         1 T2K      -0.113000
     24 C7          16.9440     1.8170    29.3540 ca         1 T2K      -0.121000
     25 H1          17.4790     7.7400    24.4630 hc         1 T2K       0.073700
     26 H2          17.4200     7.9080    26.2080 hc         1 T2K       0.073700
     27 H4          18.0610     3.5840    28.8100 ha         1 T2K       0.126000
     28 H5          19.8190     7.3850    26.3790 hc         1 T2K       0.035200
     29 H6          19.8800     7.2130    24.5510 hc         1 T2K       0.035200
     30 H7          17.5400     3.8360    22.2140 ha         1 T2K       0.147500
     31 H8          18.5070    -0.3230    21.6720 ha         1 T2K       0.138000
     32 H9          18.1370     1.2540    25.6500 ha         1 T2K       0.147500
     33 H10         15.4040     2.0060    25.7790 ha         1 T2K       0.126000
     34 H11         14.7190     0.1950    27.3310 ha         1 T2K       0.107500
     35 H12         15.6990     0.0650    29.6190 ha         1 T2K       0.104000
     36 H13         17.3600     1.7720    30.3580 ha         1 T2K       0.107500
@<TRIPOS>BOND
     1     1     8 1   
     2     1     9 1   
     3     1    25 1   
     4     1    26 1   
     5     2     6 1   
     6     3     4 1   
     7     3    11 2   
     8     3    20 1   
     9     4     5 ar  
    10     4    21 ar  
    11     5    24 ar  
    12     5    27 1   
    13     6     7 1   
    14     6     8 1   
    15     8    28 1   
    16     8    29 1   
    17     9    10 1   
    18     9    20 2   
    19    10    11 1   
    20    11    12 1   
    21    12    13 ar  
    22    12    19 ar  
    23    13    14 ar  
    24    13    30 1   
    25    14    15 1   
    26    14    16 ar  
    27    16    17 ar  
    28    16    31 1   
    29    17    18 1   
    30    17    19 ar  
    31    19    32 1   
    32    21    22 ar  
    33    21    33 1   
    34    22    23 ar  
    35    22    34 1   
    36    23    24 ar  
    37    23    35 1   
    38    24    36 1   
@<TRIPOS>SUBSTRUCTURE
     1 T2K         1 TEMP              0 ****  ****    0 ROOT
