@<TRIPOS>MOLECULE
T2K
   36    38     1     0     0
SMALL
abcg2


@<TRIPOS>ATOM
      1 C2          18.7520     7.0830    24.9830 c3         1 T2K      -0.092700
      2 O2          18.6670    10.2990    26.7710 o          1 T2K      -0.734500
      3 C4          17.6540     3.8410    26.0790 cc         1 T2K       0.323500
      4 C5          17.1510     2.9300    27.1080 ca         1 T2K      -0.107500
      5 C6          17.6480     3.0130    28.4090 ca         1 T2K      -0.085500
      6 C           19.0170     9.4690    25.9090 c          1 T2K       0.720000
      7 O           19.6820     9.6930    24.8790 o          1 T2K      -0.734500
      8 C1          18.5840     8.0110    26.1740 c3         1 T2K      -0.209400
      9 C3          18.3180     5.6920    25.2610 cd         1 T2K       0.497300
     10 O1          18.2900     4.8280    24.2370 os         1 T2K      -0.266000
     11 C11         17.8800     3.6390    24.7530 cd         1 T2K       0.112500
     12 C12         17.8080     2.5080    23.8410 ca         1 T2K      -0.073500
     13 C17         17.4600     2.7080    22.5050 ca         1 T2K      -0.086500
     14 C16         17.4070     1.6200    21.6510 ca         1 T2K       0.121000
     15 CL1         16.9680     1.8700    19.9980 cl         1 T2K      -0.203000
     16 C15         17.6890     0.3340    22.0810 ca         1 T2K      -0.107000
     17 C14         18.0410     0.1620    23.4110 ca         1 T2K       0.121000
     18 CL          18.4250    -1.4270    23.9730 cl         1 T2K      -0.203000
     19 C13         18.1130     1.2240    24.2930 ca         1 T2K      -0.086500
     20 N           17.9550     5.1550    26.3750 nc         1 T2K      -0.689000
     21 C10         16.1550     1.9960    26.8220 ca         1 T2K      -0.085500
     22 C9          15.6860     1.1440    27.8110 ca         1 T2K      -0.121000
     23 C8          16.1980     1.2200    29.1000 ca         1 T2K      -0.113000
     24 C7          17.1770     2.1600    29.3960 ca         1 T2K      -0.121000
     25 H1          19.7970     7.0650    24.6610 hc         1 T2K       0.073700
     26 H2          18.1870     7.4570    24.1240 hc         1 T2K       0.073700
     27 H4          18.4120     3.7420    28.6460 ha         1 T2K       0.126000
     28 H5          17.5440     8.0050    26.5110 hc         1 T2K       0.035200
     29 H6          19.1650     7.6330    27.0220 hc         1 T2K       0.035200
     30 H7          17.2190     3.6950    22.1360 ha         1 T2K       0.147500
     31 H8          17.6410    -0.5060    21.4020 ha         1 T2K       0.138000
     32 H9          18.4170     1.0600    25.3170 ha         1 T2K       0.147500
     33 H10         15.7320     1.9420    25.8270 ha         1 T2K       0.126000
     34 H11         14.9120     0.4260    27.5750 ha         1 T2K       0.107500
     35 H12         15.8310     0.5560    29.8710 ha         1 T2K       0.104000
     36 H13         17.5770     2.2290    30.3990 ha         1 T2K       0.107500
@<TRIPOS>BOND
     1     1     8 1   
     2     1     9 1   
     3     1    25 1   
     4     1    26 1   
     5     2     6 1   
     6     3     4 1   
     7     3    11 2   
     8     3    20 1   
     9     4     5 ar  
    10     4    21 ar  
    11     5    24 ar  
    12     5    27 1   
    13     6     7 1   
    14     6     8 1   
    15     8    28 1   
    16     8    29 1   
    17     9    10 1   
    18     9    20 2   
    19    10    11 1   
    20    11    12 1   
    21    12    13 ar  
    22    12    19 ar  
    23    13    14 ar  
    24    13    30 1   
    25    14    15 1   
    26    14    16 ar  
    27    16    17 ar  
    28    16    31 1   
    29    17    18 1   
    30    17    19 ar  
    31    19    32 1   
    32    21    22 ar  
    33    21    33 1   
    34    22    23 ar  
    35    22    34 1   
    36    23    24 ar  
    37    23    35 1   
    38    24    36 1   
@<TRIPOS>SUBSTRUCTURE
     1 T2K         1 TEMP              0 ****  ****    0 ROOT
