@<TRIPOS>MOLECULE
T2L
   82    86     1     0     0
SMALL
No Charge or Current Charge


@<TRIPOS>ATOM
      1 NBJ          7.2060    -4.1020    22.3900 nc         1 T2L      -0.469100
      2 CBK          8.0260    -4.6490    23.3810 ca         1 T2L       0.041400
      3 CBN          7.6660    -4.7730    24.7430 ca         1 T2L       0.234000
      4 FBS          6.4510    -4.3610    25.1730 f          1 T2L      -0.152000
      5 CBO          8.5770    -5.3230    25.6650 ca         1 T2L      -0.161000
      6 CBP          9.8500    -5.7520    25.2350 ca         1 T2L      -0.073000
      7 CBQ         10.2090    -5.6310    23.8800 ca         1 T2L      -0.093000
      8 CBL          9.2820    -5.0810    22.9820 ca         1 T2L      -0.155000
      9 SBM          9.5530    -4.8380    21.2690 ss         1 T2L       0.017800
     10 CBI          7.9130    -4.1410    21.2470 cd         1 T2L       0.343200
     11 C            7.3800    -3.5160    19.9610 c3         1 T2L       0.152000
     12 O            6.0410    -3.9580    19.6330 oh         1 T2L      -0.632000
     13 CA           7.4230    -1.9590    20.0220 c3         1 T2L       0.109700
     14 CB           7.1340    -1.2810    18.6550 c3         1 T2L      -0.064400
     15 CG           7.1490     0.2760    18.6660 c5         1 T2L      -0.152700
     16 CD2          6.0540     0.9490    19.5420 c5         1 T2L      -0.094400
     17 CAD          6.0310     2.3830    18.9480 c5         1 T2L       0.100000
     18 NAE          6.2490     2.0870    17.5330 ns         1 T2L      -0.516900
     19 CD1          6.9060     0.9120    17.2910 c          1 T2L       0.559000
     20 OAL          7.0200     0.4280    16.1770 o          1 T2L      -0.562000
     21 N            8.7110    -1.4880    20.5580 ns         1 T2L      -0.499900
     22 CAJ          8.8460    -0.6880    21.6770 c          1 T2L       0.591100
     23 OAK          7.8960    -0.2930    22.3390 o          1 T2L      -0.592100
     24 CAM         10.3600    -0.4550    21.9650 c5         1 T2L       0.060700
     25 CAQ         10.9240    -1.5390    22.9020 cx         1 T2L      -0.123700
     26 CBF         12.4360    -1.6330    23.0240 cx         1 T2L      -0.078000
     27 CBG         13.3890    -0.9250    22.0450 c3         1 T2L      -0.064600
     28 CBH         13.0280    -2.9830    23.4260 c3         1 T2L      -0.064600
     29 CAP         11.6190    -0.8720    24.0590 cx         1 T2L      -0.125700
     30 CAO         11.4970     0.6490    23.8920 c5         1 T2L       0.138000
     31 NAN         10.6110     0.8130    22.7110 n          1 T2L      -0.397800
     32 CAR         10.4420     2.0560    22.0650 c          1 T2L       0.592100
     33 OBE         10.2020     2.0870    20.8610 o          1 T2L      -0.623100
     34 CAS         10.4950     3.3780    22.9040 c3         1 T2L       0.046700
     35 CBA          9.1260     3.7460    23.6020 c3         1 T2L      -0.051000
     36 CBC          7.9740     3.8240    22.5590 c3         1 T2L      -0.090433
     37 CBD          9.2310     5.1230    24.3190 c3         1 T2L      -0.090433
     38 CBB          8.7430     2.6940    24.6780 c3         1 T2L      -0.090433
     39 NAT         10.9680     4.4680    22.0130 ns         1 T2L      -0.475900
     40 CAU         11.9210     5.4180    22.3390 c          1 T2L       0.555100
     41 OAZ         12.4750     5.4210    23.4330 o          1 T2L      -0.553100
     42 CAV         12.2250     6.4540    21.2210 c3         1 T2L       0.208000
     43 FAX         13.1540     7.3630    21.6060 f          1 T2L      -0.101000
     44 FAY         11.1120     7.1430    20.8730 f          1 T2L      -0.101000
     45 FAW         12.6930     5.8500    20.1030 f          1 T2L      -0.101000
     46 H1           8.2960    -5.4140    26.7110 ha         1 T2L       0.139000
     47 H2          10.5540    -6.1750    25.9490 ha         1 T2L       0.123000
     48 H3          11.1890    -5.9570    23.5370 ha         1 T2L       0.131000
     49 H4           8.0610    -3.8270    19.1570 h1         1 T2L       0.045700
     50 H5           6.0210    -4.9370    19.7210 ho         1 T2L       0.453000
     51 H6           6.6270    -1.6540    20.7160 h1         1 T2L       0.111700
     52 H7           6.1600    -1.6260    18.2860 hc         1 T2L       0.066200
     53 H8           7.8740    -1.6410    17.9290 hc         1 T2L       0.066200
     54 H9           8.1250     0.6400    19.0070 hc         1 T2L       0.088700
     55 H10          5.0820     0.4590    19.4110 hc         1 T2L       0.067700
     56 H11          6.2840     0.9450    20.6120 hc         1 T2L       0.067700
     57 H12          6.8420     3.0010    19.3560 h1         1 T2L       0.044200
     58 H13          5.0760     2.8920    19.1360 h1         1 T2L       0.044200
     59 H14          5.9100     2.6320    16.7490 hn         1 T2L       0.325500
     60 H15          9.5620    -1.7490    20.0730 hn         1 T2L       0.321500
     61 H16         10.8800    -0.4390    20.9990 h1         1 T2L       0.084700
     62 H17         10.3360    -2.4310    23.1050 hc         1 T2L       0.108700
     63 H18         14.3730    -0.7760    22.5050 hc         1 T2L       0.041867
     64 H19         13.5340    -1.5300    21.1420 hc         1 T2L       0.041867
     65 H20         13.0380     0.0590    21.7180 hc         1 T2L       0.041867
     66 H21         12.3850    -3.5060    24.1450 hc         1 T2L       0.041867
     67 H22         13.1470    -3.6360    22.5540 hc         1 T2L       0.041867
     68 H23         14.0120    -2.8590    23.8950 hc         1 T2L       0.041867
     69 H24         11.5160    -1.3080    25.0500 hc         1 T2L       0.104700
     70 H25         12.4700     1.1340    23.7360 h1         1 T2L       0.062200
     71 H26         11.0490     1.1050    24.7820 h1         1 T2L       0.062200
     72 H27         11.2490     3.2350    23.6870 h1         1 T2L       0.088700
     73 H28          7.0350     4.1300    23.0360 hc         1 T2L       0.043033
     74 H29          8.1980     4.5530    21.7710 hc         1 T2L       0.043033
     75 H30          7.7970     2.8520    22.0830 hc         1 T2L       0.043033
     76 H31         10.0650     5.1310    25.0310 hc         1 T2L       0.043033
     77 H32          9.3840     5.9410    23.6040 hc         1 T2L       0.043033
     78 H33          8.3130     5.3480    24.8760 hc         1 T2L       0.043033
     79 H34          9.5160     2.6240    25.4520 hc         1 T2L       0.043033
     80 H35          7.8040     2.9680    25.1750 hc         1 T2L       0.043033
     81 H36          8.5970     1.7000    24.2400 hc         1 T2L       0.043033
     82 H37         10.5900     4.5040    21.0720 hn         1 T2L       0.355500
@<TRIPOS>BOND
     1     1     2 1   
     2     1    10 2   
     3     2     3 ar  
     4     2     8 ar  
     5     3     4 1   
     6     3     5 ar  
     7     5     6 ar  
     8     5    46 1   
     9     6     7 ar  
    10     6    47 1   
    11     7     8 ar  
    12     7    48 1   
    13     8     9 1   
    14     9    10 1   
    15    10    11 1   
    16    11    12 1   
    17    11    13 1   
    18    11    49 1   
    19    12    50 1   
    20    13    14 1   
    21    13    21 1   
    22    13    51 1   
    23    14    15 1   
    24    14    52 1   
    25    14    53 1   
    26    15    16 1   
    27    15    19 1   
    28    15    54 1   
    29    16    17 1   
    30    16    55 1   
    31    16    56 1   
    32    17    18 1   
    33    17    57 1   
    34    17    58 1   
    35    18    19 1   
    36    18    59 1   
    37    19    20 2   
    38    21    22 1   
    39    21    60 1   
    40    22    23 2   
    41    22    24 1   
    42    24    25 1   
    43    24    31 1   
    44    24    61 1   
    45    25    26 1   
    46    25    29 1   
    47    25    62 1   
    48    26    27 1   
    49    26    28 1   
    50    26    29 1   
    51    27    63 1   
    52    27    64 1   
    53    27    65 1   
    54    28    66 1   
    55    28    67 1   
    56    28    68 1   
    57    29    30 1   
    58    29    69 1   
    59    30    31 1   
    60    30    70 1   
    61    30    71 1   
    62    31    32 1   
    63    32    33 2   
    64    32    34 1   
    65    34    35 1   
    66    34    39 1   
    67    34    72 1   
    68    35    36 1   
    69    35    37 1   
    70    35    38 1   
    71    36    73 1   
    72    36    74 1   
    73    36    75 1   
    74    37    76 1   
    75    37    77 1   
    76    37    78 1   
    77    38    79 1   
    78    38    80 1   
    79    38    81 1   
    80    39    40 1   
    81    39    82 1   
    82    40    41 2   
    83    40    42 1   
    84    42    43 1   
    85    42    44 1   
    86    42    45 1   
@<TRIPOS>SUBSTRUCTURE
     1 T2L         1 TEMP              0 ****  ****    0 ROOT
