@<TRIPOS>MOLECULE
T2L
   82    86     1     0     0
SMALL
abcg2


@<TRIPOS>ATOM
      1 NBJ          7.7430    -4.2100    22.0000 nc         1 T2L      -0.469100
      2 CBK          8.6780    -4.8420    22.7920 ca         1 T2L       0.041400
      3 CBN          8.5540    -5.1370    24.1510 ca         1 T2L       0.234000
      4 FBS          7.4060    -4.8120    24.7850 f          1 T2L      -0.152000
      5 CBO          9.5770    -5.7370    24.8470 ca         1 T2L      -0.161000
      6 CBP         10.7680    -6.0630    24.1830 ca         1 T2L      -0.073000
      7 CBQ         10.9410    -5.7930    22.8350 ca         1 T2L      -0.093000
      8 CBL          9.8920    -5.1800    22.1540 ca         1 T2L      -0.155000
      9 SBM          9.7970    -4.6760    20.4940 ss         1 T2L       0.017800
     10 CBI          8.1880    -4.0490    20.7970 cd         1 T2L       0.343200
     11 C            7.4660    -3.2650    19.7260 c3         1 T2L       0.152000
     12 O            6.1340    -3.7160    19.5340 oh         1 T2L      -0.632000
     13 CA           7.3870    -1.7860    20.1550 c3         1 T2L       0.109700
     14 CB           6.9020    -0.8670    19.0350 c3         1 T2L      -0.064400
     15 CG           6.7320     0.5690    19.5150 c5         1 T2L      -0.152700
     16 CD2          5.6020     0.8090    20.5260 c5         1 T2L      -0.094400
     17 CAD          5.1500     2.2520    20.2550 c5         1 T2L       0.100000
     18 NAE          5.5220     2.4390    18.8560 ns         1 T2L      -0.516900
     19 CD1          6.4220     1.5530    18.3900 c          1 T2L       0.559000
     20 OAL          6.9220     1.5560    17.2670 o          1 T2L      -0.562000
     21 N            8.6840    -1.3610    20.6480 ns         1 T2L      -0.499900
     22 CAJ          8.8950    -0.9120    21.8960 c          1 T2L       0.591100
     23 OAK          8.0090    -0.7560    22.7320 o          1 T2L      -0.592100
     24 CAM         10.3590    -0.6280    22.2410 c5         1 T2L       0.060700
     25 CAQ         10.7940    -1.5280    23.3780 cx         1 T2L      -0.123700
     26 CBF         12.1850    -1.3840    23.9430 cx         1 T2L      -0.078000
     27 CBG         13.2740    -0.6360    23.2050 c3         1 T2L      -0.064600
     28 CBH         12.6940    -2.6000    24.6900 c3         1 T2L      -0.064600
     29 CAP         11.0280    -0.6640    24.5950 cx         1 T2L      -0.125700
     30 CAO         10.7360     0.7710    24.2230 c5         1 T2L       0.138000
     31 NAN         10.4920     0.7350    22.7680 n          1 T2L      -0.397800
     32 CAR         10.3830     1.7720    21.9220 c          1 T2L       0.592100
     33 OBE         10.2590     1.6100    20.7040 o          1 T2L      -0.623100
     34 CAS         10.4020     3.1880    22.4960 c3         1 T2L       0.046700
     35 CBA          8.9840     3.8520    22.4970 c3         1 T2L      -0.051000
     36 CBC          8.4830     4.1390    21.0770 c3         1 T2L      -0.090433
     37 CBD          9.0850     5.1720    23.2720 c3         1 T2L      -0.090433
     38 CBB          7.9950     2.9220    23.2100 c3         1 T2L      -0.090433
     39 NAT         11.3630     3.9460    21.7060 ns         1 T2L      -0.475900
     40 CAU         12.3380     4.6760    22.2430 c          1 T2L       0.555100
     41 OAZ         12.5630     4.8540    23.4290 o          1 T2L      -0.553100
     42 CAV         13.2550     5.3930    21.2180 c3         1 T2L       0.208000
     43 FAX         14.5430     5.1710    21.5130 f          1 T2L      -0.101000
     44 FAY         13.0430     6.7210    21.2730 f          1 T2L      -0.101000
     45 FAW         13.0540     5.0040    19.9450 f          1 T2L      -0.101000
     46 H1           9.4530    -5.9460    25.9010 ha         1 T2L       0.139000
     47 H2          11.5690    -6.5300    24.7410 ha         1 T2L       0.123000
     48 H3          11.8650    -6.0410    22.3320 ha         1 T2L       0.131000
     49 H4           8.0360    -3.3380    18.7940 h1         1 T2L       0.045700
     50 H5           6.1590    -4.5960    19.1370 ho         1 T2L       0.453000
     51 H6           6.7060    -1.7400    21.0040 h1         1 T2L       0.111700
     52 H7           5.9530    -1.2450    18.6510 hc         1 T2L       0.066200
     53 H8           7.6240    -0.8940    18.2140 hc         1 T2L       0.066200
     54 H9           7.6820     0.9140    19.9390 hc         1 T2L       0.088700
     55 H10          4.7790     0.1200    20.3220 hc         1 T2L       0.067700
     56 H11          5.9170     0.6650    21.5570 hc         1 T2L       0.067700
     57 H12          5.6770     2.9660    20.8920 h1         1 T2L       0.044200
     58 H13          4.0790     2.3910    20.3920 h1         1 T2L       0.044200
     59 H14          5.2640     3.2560    18.3240 hn         1 T2L       0.325500
     60 H15          9.4660    -1.3810    20.0110 hn         1 T2L       0.321500
     61 H16         10.9840    -0.7320    21.3540 h1         1 T2L       0.084700
     62 H17         10.3020    -2.4860    23.4570 hc         1 T2L       0.108700
     63 H18         14.0460    -0.3130    23.9080 hc         1 T2L       0.041867
     64 H19         13.7480    -1.2920    22.4710 hc         1 T2L       0.041867
     65 H20         12.9140     0.2470    22.6800 hc         1 T2L       0.041867
     66 H21         11.8820    -3.1250    25.1960 hc         1 T2L       0.041867
     67 H22         13.1710    -3.3020    24.0020 hc         1 T2L       0.041867
     68 H23         13.4330    -2.3070    25.4410 hc         1 T2L       0.041867
     69 H24         10.7050    -0.9880    25.5740 hc         1 T2L       0.104700
     70 H25         11.5650     1.4450    24.4430 h1         1 T2L       0.062200
     71 H26          9.8510     1.1230    24.7550 h1         1 T2L       0.062200
     72 H27         10.7680     3.1880    23.5180 h1         1 T2L       0.088700
     73 H28          7.5060     4.6220    21.1350 hc         1 T2L       0.043033
     74 H29          9.1550     4.8150    20.5450 hc         1 T2L       0.043033
     75 H30          8.3790     3.2260    20.4930 hc         1 T2L       0.043033
     76 H31          9.4150     5.0010    24.2980 hc         1 T2L       0.043033
     77 H32          9.7840     5.8620    22.7950 hc         1 T2L       0.043033
     78 H33          8.1070     5.6550    23.3010 hc         1 T2L       0.043033
     79 H34          8.3090     2.7190    24.2350 hc         1 T2L       0.043033
     80 H35          7.0140     3.3980    23.2480 hc         1 T2L       0.043033
     81 H36          7.8830     1.9700    22.6900 hc         1 T2L       0.043033
     82 H37         11.3160     3.8350    20.7030 hn         1 T2L       0.355500
@<TRIPOS>BOND
     1     1     2 1   
     2     1    10 2   
     3     2     3 ar  
     4     2     8 ar  
     5     3     4 1   
     6     3     5 ar  
     7     5     6 ar  
     8     5    46 1   
     9     6     7 ar  
    10     6    47 1   
    11     7     8 ar  
    12     7    48 1   
    13     8     9 1   
    14     9    10 1   
    15    10    11 1   
    16    11    12 1   
    17    11    13 1   
    18    11    49 1   
    19    12    50 1   
    20    13    14 1   
    21    13    21 1   
    22    13    51 1   
    23    14    15 1   
    24    14    52 1   
    25    14    53 1   
    26    15    16 1   
    27    15    19 1   
    28    15    54 1   
    29    16    17 1   
    30    16    55 1   
    31    16    56 1   
    32    17    18 1   
    33    17    57 1   
    34    17    58 1   
    35    18    19 1   
    36    18    59 1   
    37    19    20 2   
    38    21    22 1   
    39    21    60 1   
    40    22    23 2   
    41    22    24 1   
    42    24    25 1   
    43    24    31 1   
    44    24    61 1   
    45    25    26 1   
    46    25    29 1   
    47    25    62 1   
    48    26    27 1   
    49    26    28 1   
    50    26    29 1   
    51    27    63 1   
    52    27    64 1   
    53    27    65 1   
    54    28    66 1   
    55    28    67 1   
    56    28    68 1   
    57    29    30 1   
    58    29    69 1   
    59    30    31 1   
    60    30    70 1   
    61    30    71 1   
    62    31    32 1   
    63    32    33 2   
    64    32    34 1   
    65    34    35 1   
    66    34    39 1   
    67    34    72 1   
    68    35    36 1   
    69    35    37 1   
    70    35    38 1   
    71    36    73 1   
    72    36    74 1   
    73    36    75 1   
    74    37    76 1   
    75    37    77 1   
    76    37    78 1   
    77    38    79 1   
    78    38    80 1   
    79    38    81 1   
    80    39    40 1   
    81    39    82 1   
    82    40    41 2   
    83    40    42 1   
    84    42    43 1   
    85    42    44 1   
    86    42    45 1   
@<TRIPOS>SUBSTRUCTURE
     1 T2L         1 TEMP              0 ****  ****    0 ROOT
