@<TRIPOS>MOLECULE
T2M
   25    24     1     0     0
SMALL
No Charge or Current Charge


@<TRIPOS>ATOM
      1 C1           0.0900     1.7850    -1.9810 c3         1 T2M       0.221100
      2 N2           0.3650     0.3720    -2.3290 n3         1 T2M      -0.369200
      3 N3           1.2200    -0.3660    -1.4010 ns         1 T2M      -0.353300
      4 C4           1.1160    -0.4400    -0.0100 c          1 T2M       0.647100
      5 O5           1.9610    -1.0060     0.6620 o          1 T2M      -0.525000
      6 O6          -0.0510     0.1140     0.4600 os         1 T2M      -0.469100
      7 C7          -0.4100     0.1210     1.8600 c3         1 T2M       0.225000
      8 C8          -1.7720     0.8490     1.8940 c3         1 T2M      -0.110433
      9 C9          -0.5770    -1.3360     2.3630 c3         1 T2M      -0.110433
     10 C10          0.6410     0.9280     2.6640 c3         1 T2M      -0.110433
     11 C11         -0.5420    -0.6140    -2.4000 c1         1 T2M       0.448800
     12 N12         -1.3460    -1.4500    -2.5140 n1         1 T2M      -0.485000
     13 H11          1.0290     2.3380    -1.8520 h1         1 T2M       0.051700
     14 H12         -0.4770     2.2650    -2.7890 h1         1 T2M       0.051700
     15 H13         -0.5020     1.8840    -1.0650 h1         1 T2M       0.051700
     16 HN3          2.0750    -0.7780    -1.7670 hn         1 T2M       0.366500
     17 H81         -2.1540     0.9150     2.9200 hc         1 T2M       0.052256
     18 H82         -1.6790     1.8680     1.5000 hc         1 T2M       0.052256
     19 H83         -2.5140     0.3150     1.2890 hc         1 T2M       0.052256
     20 H91         -1.1920    -1.9190     1.6670 hc         1 T2M       0.052256
     21 H92          0.3860    -1.8420     2.4830 hc         1 T2M       0.052256
     22 H93         -1.0720    -1.3470     3.3420 hc         1 T2M       0.052256
     23 H101         0.8520     1.8870     2.1770 hc         1 T2M       0.052256
     24 H102         0.2700     1.1360     3.6750 hc         1 T2M       0.052256
     25 H103         1.5830     0.3800     2.7730 hc         1 T2M       0.052256
@<TRIPOS>BOND
     1     1     2 1   
     2     1    13 1   
     3     1    14 1   
     4     1    15 1   
     5     2     3 1   
     6     2    11 1   
     7     3     4 1   
     8     3    16 1   
     9     4     5 2   
    10     4     6 1   
    11     6     7 1   
    12     7     8 1   
    13     7     9 1   
    14     7    10 1   
    15     8    17 1   
    16     8    18 1   
    17     8    19 1   
    18     9    20 1   
    19     9    21 1   
    20     9    22 1   
    21    10    23 1   
    22    10    24 1   
    23    10    25 1   
    24    11    12 3   
@<TRIPOS>SUBSTRUCTURE
     1 T2M         1 TEMP              0 ****  ****    0 ROOT
