@<TRIPOS>MOLECULE
T2M
   25    24     1     0     0
SMALL
abcg2


@<TRIPOS>ATOM
      1 C1           0.2500     1.7650    -2.1350 c3         1 T2M       0.221100
      2 N2           0.2770     0.3100    -2.0720 n3         1 T2M      -0.369200
      3 N3           1.2230    -0.3050    -1.3010 ns         1 T2M      -0.353300
      4 C4           1.1350    -0.4090     0.0630 c          1 T2M       0.647100
      5 O5           2.0340    -0.8810     0.7190 o          1 T2M      -0.525000
      6 O6          -0.0260     0.0420     0.4880 os         1 T2M      -0.469100
      7 C7          -0.4080     0.0550     1.8960 c3         1 T2M       0.225000
      8 C8          -1.7850     0.7030     1.8650 c3         1 T2M      -0.110433
      9 C9          -0.5080    -1.3660     2.4330 c3         1 T2M      -0.110433
     10 C10          0.5530     0.9110     2.7100 c3         1 T2M      -0.110433
     11 C11         -0.8120    -0.3930    -2.3380 c1         1 T2M       0.448800
     12 N12         -1.7490    -1.0250    -2.5850 n1         1 T2M      -0.485000
     13 H11          1.2400     2.1210    -2.4090 h1         1 T2M       0.051700
     14 H12         -0.4520     2.0700    -2.9080 h1         1 T2M       0.051700
     15 H13         -0.0490     2.2050    -1.1840 h1         1 T2M       0.051700
     16 HN3          2.0770    -0.5840    -1.7600 hn         1 T2M       0.366500
     17 H81         -2.1880     0.7560     2.8770 hc         1 T2M       0.052256
     18 H82         -1.7360     1.7180     1.4700 hc         1 T2M       0.052256
     19 H83         -2.4820     0.1270     1.2550 hc         1 T2M       0.052256
     20 H91         -1.1720    -1.9720     1.8140 hc         1 T2M       0.052256
     21 H92          0.4600    -1.8590     2.4950 hc         1 T2M       0.052256
     22 H93         -0.9290    -1.3360     3.4390 hc         1 T2M       0.052256
     23 H101         0.7080     1.8820     2.2380 hc         1 T2M       0.052256
     24 H102         0.1180     1.0910     3.6940 hc         1 T2M       0.052256
     25 H103         1.5200     0.4350     2.8570 hc         1 T2M       0.052256
@<TRIPOS>BOND
     1     1     2 1   
     2     1    13 1   
     3     1    14 1   
     4     1    15 1   
     5     2     3 1   
     6     2    11 1   
     7     3     4 1   
     8     3    16 1   
     9     4     5 2   
    10     4     6 1   
    11     6     7 1   
    12     7     8 1   
    13     7     9 1   
    14     7    10 1   
    15     8    17 1   
    16     8    18 1   
    17     8    19 1   
    18     9    20 1   
    19     9    21 1   
    20     9    22 1   
    21    10    23 1   
    22    10    24 1   
    23    10    25 1   
    24    11    12 3   
@<TRIPOS>SUBSTRUCTURE
     1 T2M         1 TEMP              0 ****  ****    0 ROOT
