@<TRIPOS>MOLECULE
T2Q
   65    69     1     0     0
SMALL
No Charge or Current Charge


@<TRIPOS>ATOM
      1 N1         219.7090   247.2480   299.4690 nh         1 T2Q      -0.846400
      2 C4         222.4290   252.8800   299.8410 cc         1 T2Q       0.047600
      3 C5         223.0670   253.4650   298.7610 cd         1 T2Q      -0.307800
      4 C6         219.3100   259.5490   297.4410 ca         1 T2Q      -0.112000
      5 C7         221.4400   256.4310   297.9230 cc         1 T2Q       0.619500
      6 C8         223.9800   250.9830   299.8710 c          1 T2Q       0.556200
      7 C13        224.2160   252.8270   298.1750 cd         1 T2Q      -0.057000
      8 C17        218.4030   250.4190   300.9670 ca         1 T2Q      -0.064000
      9 C20        220.8600   249.1540   300.5040 ca         1 T2Q      -0.163000
     10 C21        218.5870   246.2650   299.6030 c6         1 T2Q       0.238300
     11 C22        219.0960   244.8070   299.4740 c6         1 T2Q      -0.064900
     12 C24        220.4360   245.8310   297.5170 c6         1 T2Q      -0.064900
     13 C1         220.3130   258.5780   297.2670 ca         1 T2Q      -0.061500
     14 C12        224.6320   251.6350   298.7270 cc         1 T2Q      -0.325200
     15 C16        219.5960   251.0440   301.3580 ca         1 T2Q      -0.155000
     16 C18        218.4410   249.1600   300.3430 ca         1 T2Q      -0.184000
     17 C2         219.6700   248.5150   300.1030 ca         1 T2Q       0.351000
     18 C14        220.8330   250.4150   301.1300 ca         1 T2Q      -0.060300
     19 C23        219.7810   244.5310   298.0950 c6         1 T2Q      -0.266700
     20 C25        220.8710   246.8270   298.6230 c6         1 T2Q       0.238300
     21 C27        217.1350   261.5170   297.9300 c3         1 T2Q       0.516000
     22 C3         219.4190   257.3140   299.1380 ca         1 T2Q      -0.061500
     23 C9         218.4180   258.2850   299.3100 ca         1 T2Q      -0.112000
     24 C10        218.3530   259.4060   298.4690 ca         1 T2Q       0.109100
     25 CAA        222.5470   254.7090   298.2540 cd         1 T2Q       0.587800
     26 CAB        220.3850   257.4450   298.1120 ca         1 T2Q      -0.131500
     27 F1         216.0680   262.2060   298.3920 f          1 T2Q      -0.107333
     28 F2         216.8940   261.2480   296.6260 f          1 T2Q      -0.107333
     29 F3         218.1990   262.3510   297.9950 f          1 T2Q      -0.107333
     30 N6         221.5040   255.3420   298.7420 nc         1 T2Q      -0.747000
     31 N9         222.8670   251.6760   300.3950 n          1 T2Q      -0.263000
     32 NAA        222.3610   256.5120   296.9760 nd         1 T2Q      -0.377300
     33 OP3        223.1210   255.3430   297.1930 os         1 T2Q      -0.084700
     34 S1         220.9390   243.1080   298.1930 s6         1 T2Q       1.069000
     35 H1         221.5540   253.2790   300.3470 h4         1 T2Q       0.223000
     36 H2         219.2980   260.4000   296.7670 ha         1 T2Q       0.139000
     37 H3         224.7430   253.2600   297.3230 ha         1 T2Q       0.204000
     38 H4         217.4480   250.9100   301.1430 ha         1 T2Q       0.111000
     39 H5         221.8160   248.6670   300.3380 ha         1 T2Q       0.116000
     40 H6         217.8220   246.4540   298.8350 h1         1 T2Q       0.051950
     41 H7         218.1020   246.3750   300.5850 h1         1 T2Q       0.051950
     42 H8         219.8030   244.6230   300.2950 hc         1 T2Q       0.063200
     43 H9         218.2630   244.1070   299.6280 hc         1 T2Q       0.063200
     44 H10        221.2920   245.6010   296.8700 hc         1 T2Q       0.063200
     45 H11        219.7090   246.3390   296.8690 hc         1 T2Q       0.063200
     46 H12        222.0290   241.8010   296.5510 h1         1 T2Q       0.104033
     47 H13        220.4810   242.5080   295.9480 h1         1 T2Q       0.104033
     48 H14        221.9560   243.5430   296.0910 h1         1 T2Q       0.104033
     49 H15        221.0370   258.7160   296.4660 ha         1 T2Q       0.140500
     50 H16        222.7630   250.3670   302.0750 h1         1 T2Q       0.070200
     51 H17        221.9160   251.8920   302.2610 h1         1 T2Q       0.070200
     52 H18        225.4880   251.1010   298.3310 ha         1 T2Q       0.215000
     53 H19        219.5570   252.0200   301.8390 ha         1 T2Q       0.111000
     54 H20        217.5090   248.6980   300.0340 ha         1 T2Q       0.113000
     55 H21        219.0170   244.1910   297.3840 h1         1 T2Q       0.090700
     56 H22        221.3210   247.7050   298.1370 h1         1 T2Q       0.051950
     57 H23        221.6480   246.3640   299.2490 h1         1 T2Q       0.051950
     58 H24        219.4370   256.4580   299.8100 ha         1 T2Q       0.140500
     59 H25        217.6850   258.1680   300.1040 ha         1 T2Q       0.139000
     60 C26        221.4010   242.6970   296.5090 c3         1 T2Q      -0.332100
     61 O3         220.1950   241.9600   298.7260 o          1 T2Q      -0.515500
     62 C11        222.1340   251.0910   301.5430 c3         1 T2Q       0.132300
     63 OP1        222.1540   243.5530   298.8860 o          1 T2Q      -0.515500
     64 O4         224.3850   249.9210   300.3230 o          1 T2Q      -0.522000
     65 O5         217.3380   260.3170   298.7030 os         1 T2Q      -0.404100
@<TRIPOS>BOND
     1     1    10 1   
     2     1    17 1   
     3     1    20 1   
     4     2     3 2   
     5     2    31 1   
     6     2    35 1   
     7     3     7 1   
     8     3    25 1   
     9     4    13 ar  
    10     4    24 ar  
    11     4    36 1   
    12     5    26 1   
    13     5    30 1   
    14     5    32 2   
    15     6    14 1   
    16     6    31 1   
    17     6    64 2   
    18     7    14 2   
    19     7    37 1   
    20     8    15 ar  
    21     8    16 ar  
    22     8    38 1   
    23     9    17 ar  
    24     9    18 ar  
    25     9    39 1   
    26    10    11 1   
    27    10    40 1   
    28    10    41 1   
    29    11    19 1   
    30    11    42 1   
    31    11    43 1   
    32    12    19 1   
    33    12    20 1   
    34    12    44 1   
    35    12    45 1   
    36    13    26 ar  
    37    13    49 1   
    38    14    52 1   
    39    15    18 ar  
    40    15    53 1   
    41    16    17 ar  
    42    16    54 1   
    43    18    62 1   
    44    19    34 1   
    45    19    55 1   
    46    20    56 1   
    47    20    57 1   
    48    21    27 1   
    49    21    28 1   
    50    21    29 1   
    51    21    65 1   
    52    22    23 ar  
    53    22    26 ar  
    54    22    58 1   
    55    23    24 ar  
    56    23    59 1   
    57    24    65 1   
    58    25    30 2   
    59    25    33 1   
    60    31    62 1   
    61    32    33 1   
    62    34    60 1   
    63    34    61 2   
    64    34    63 2   
    65    46    60 1   
    66    47    60 1   
    67    48    60 1   
    68    50    62 1   
    69    51    62 1   
@<TRIPOS>SUBSTRUCTURE
     1 T2Q         1 TEMP              0 ****  ****    0 ROOT
