@<TRIPOS>MOLECULE
T2Q
   65    69     1     0     0
SMALL
bcc


@<TRIPOS>ATOM
      1 N1         219.9970   246.4730   298.7050 nh         1 T2Q      -0.708000
      2 C4         221.7400   253.3420   298.2620 cc         1 T2Q       0.097600
      3 C5         222.2990   254.2620   297.4200 cd         1 T2Q      -0.307800
      4 C6         219.5160   260.7840   298.8520 ca         1 T2Q      -0.130000
      5 C7         220.9600   257.4580   297.8900 cc         1 T2Q       0.619500
      6 C8         223.1630   251.5660   297.4660 c          1 T2Q       0.698700
      7 C13        223.3300   253.8250   296.5450 cd         1 T2Q      -0.007000
      8 C17        218.9350   249.5110   296.9180 ca         1 T2Q      -0.082000
      9 C20        220.7280   248.7690   298.8760 ca         1 T2Q      -0.181000
     10 C21        218.9610   245.5180   298.3650 c6         1 T2Q       0.238300
     11 C22        218.9050   244.4050   299.4010 c6         1 T2Q      -0.064900
     12 C24        221.4150   244.5270   299.0960 c6         1 T2Q      -0.064900
     13 C1         220.2720   259.8220   298.2050 ca         1 T2Q      -0.079500
     14 C12        223.7410   252.5360   296.5720 cc         1 T2Q      -0.275200
     15 C16        219.7390   250.4810   297.4990 ca         1 T2Q      -0.173000
     16 C18        219.0110   248.1820   297.3020 ca         1 T2Q      -0.202000
     17 C2         219.9130   247.7780   298.3020 ca         1 T2Q       0.212600
     18 C14        220.6450   250.0950   298.4810 ca         1 T2Q      -0.060300
     19 C23        220.2210   243.6190   299.4130 c6         1 T2Q      -0.155900
     20 C25        221.1450   245.9830   299.4430 c6         1 T2Q       0.238300
     21 C27        218.3320   261.9350   301.5620 c3         1 T2Q       0.856700
     22 C3         219.2470   258.1030   299.5420 ca         1 T2Q      -0.079500
     23 C9         218.4850   259.0570   300.1920 ca         1 T2Q      -0.130000
     24 C10        218.6350   260.3880   299.8440 ca         1 T2Q       0.109100
     25 CAA        221.8370   255.6260   297.4730 cd         1 T2Q       0.632200
     26 CAB        220.1500   258.4780   298.5510 ca         1 T2Q      -0.131500
     27 F1         217.3570   262.6490   302.1010 f          1 T2Q      -0.228633
     28 F2         219.3460   262.7540   301.2780 f          1 T2Q      -0.228633
     29 F3         218.7800   261.0670   302.4670 f          1 T2Q      -0.228633
     30 N6         220.9960   256.1610   298.2990 nc         1 T2Q      -0.747000
     31 N9         222.1350   252.0610   298.2840 n          1 T2Q      -0.330000
     32 NAA        221.7320   257.7110   296.8740 nd         1 T2Q      -0.377300
     33 OP3        222.3070   256.5020   296.5930 os         1 T2Q      -0.129100
     34 S1         220.3890   242.8100   301.0180 s6         1 T2Q       0.989000
     35 H1         220.9480   253.6110   298.9480 h4         1 T2Q       0.173000
     36 H2         219.6080   261.8250   298.5740 ha         1 T2Q       0.157000
     37 H3         223.7990   254.5180   295.8590 ha         1 T2Q       0.154000
     38 H4         218.2330   249.7910   296.1420 ha         1 T2Q       0.129000
     39 H5         221.4250   248.5130   299.6650 ha         1 T2Q       0.134000
     40 H6         219.0990   245.0950   297.3610 h1         1 T2Q       0.051950
     41 H7         217.9910   246.0200   298.3630 h1         1 T2Q       0.051950
     42 H8         218.7070   244.8580   300.3760 hc         1 T2Q       0.063200
     43 H9         218.0700   243.7440   299.1790 hc         1 T2Q       0.063200
     44 H10        222.3310   244.2070   299.5960 hc         1 T2Q       0.063200
     45 H11        221.6200   244.4530   298.0270 hc         1 T2Q       0.063200
     46 H12        221.7690   241.0590   301.7260 h1         1 T2Q       0.104033
     47 H13        221.3330   240.8780   300.0070 h1         1 T2Q       0.104033
     48 H14        222.5930   242.0470   300.4970 h1         1 T2Q       0.104033
     49 H15        220.9640   260.1290   297.4330 ha         1 T2Q       0.158500
     50 H16        222.2530   250.6350   299.8050 h1         1 T2Q       0.070200
     51 H17        220.8660   251.7050   299.8710 h1         1 T2Q       0.070200
     52 H18        224.5330   252.1920   295.9220 ha         1 T2Q       0.165000
     53 H19        219.6590   251.5140   297.1850 ha         1 T2Q       0.129000
     54 H20        218.3790   247.4610   296.8010 ha         1 T2Q       0.131000
     55 H21        220.1720   242.7990   298.6930 h1         1 T2Q       0.090700
     56 H22        222.0260   246.5610   299.1630 h1         1 T2Q       0.051950
     57 H23        221.0220   246.0990   300.5250 h1         1 T2Q       0.051950
     58 H24        219.1360   257.0610   299.8100 ha         1 T2Q       0.158500
     59 H25        217.7730   258.7650   300.9530 ha         1 T2Q       0.157000
     60 C26        221.6530   241.5780   300.7750 c3         1 T2Q      -0.221300
     61 O3         219.1360   242.1140   301.3130 o          1 T2Q      -0.586300
     62 C11        221.4890   251.1180   299.1960 c3         1 T2Q       0.132300
     63 OP1        220.8740   243.7850   301.9980 o          1 T2Q      -0.586300
     64 O4         223.5130   250.4030   297.5660 o          1 T2Q      -0.597500
     65 O5         217.8420   261.3370   300.4680 os         1 T2Q      -0.380900
@<TRIPOS>BOND
     1     1    10 1   
     2     1    17 1   
     3     1    20 1   
     4     2     3 2   
     5     2    31 1   
     6     2    35 1   
     7     3     7 1   
     8     3    25 1   
     9     4    13 ar  
    10     4    24 ar  
    11     4    36 1   
    12     5    26 1   
    13     5    30 1   
    14     5    32 2   
    15     6    14 1   
    16     6    31 1   
    17     6    64 2   
    18     7    14 2   
    19     7    37 1   
    20     8    15 ar  
    21     8    16 ar  
    22     8    38 1   
    23     9    17 ar  
    24     9    18 ar  
    25     9    39 1   
    26    10    11 1   
    27    10    40 1   
    28    10    41 1   
    29    11    19 1   
    30    11    42 1   
    31    11    43 1   
    32    12    19 1   
    33    12    20 1   
    34    12    44 1   
    35    12    45 1   
    36    13    26 ar  
    37    13    49 1   
    38    14    52 1   
    39    15    18 ar  
    40    15    53 1   
    41    16    17 ar  
    42    16    54 1   
    43    18    62 1   
    44    19    34 1   
    45    19    55 1   
    46    20    56 1   
    47    20    57 1   
    48    21    27 1   
    49    21    28 1   
    50    21    29 1   
    51    21    65 1   
    52    22    23 ar  
    53    22    26 ar  
    54    22    58 1   
    55    23    24 ar  
    56    23    59 1   
    57    24    65 1   
    58    25    30 2   
    59    25    33 1   
    60    31    62 1   
    61    32    33 1   
    62    34    60 1   
    63    34    61 2   
    64    34    63 2   
    65    46    60 1   
    66    47    60 1   
    67    48    60 1   
    68    50    62 1   
    69    51    62 1   
@<TRIPOS>SUBSTRUCTURE
     1 T2Q         1 TEMP              0 ****  ****    0 ROOT
