@<TRIPOS>MOLECULE
T2R
   90    95     1     0     0
SMALL
abcg2


@<TRIPOS>ATOM
      1 C53         22.6430    28.5870    15.6030 cc         1 T2R       0.796500
      2 N54         23.7400    29.2970    15.8320 nu         1 T2R      -0.885400
      3 C55         24.8590    28.8860    16.6770 c3         1 T2R       0.246500
      4 C56         26.0870    29.6830    16.2660 c3         1 T2R      -0.113100
      5 C57         24.5400    29.0670    18.1560 c3         1 T2R      -0.113100
      6 O51         22.6200    27.3100    16.0450 os         1 T2R      -0.303700
      7 N52         21.5710    28.9780    14.9700 nd         1 T2R      -0.673100
      8 C2          20.7590    27.8740    14.9800 ca         1 T2R       0.161400
      9 C3          21.4060    26.8320    15.6490 ca         1 T2R      -0.023900
     10 C4          20.8840    25.5800    15.8340 ca         1 T2R       0.019000
     11 C5          19.6040    25.3900    15.3030 ca         1 T2R      -0.323500
     12 C6          18.9240    26.4040    14.6250 ca         1 T2R      -0.021000
     13 C7          19.4920    27.6580    14.4540 ca         1 T2R      -0.101000
     14 S8          18.8000    23.8350    15.5550 sy         1 T2R       1.163600
     15 O9          17.7820    23.6930    14.5260 o          1 T2R      -0.532000
     16 O10         19.8250    22.8120    15.6850 o          1 T2R      -0.532000
     17 N11         18.0130    23.9260    17.0090 n3         1 T2R      -0.727500
     18 C12         18.8620    23.9820    18.2050 c3         1 T2R       0.200800
     19 C13         18.2980    23.2050    19.3930 c3         1 T2R      -0.060700
     20 C14         18.1120    21.7290    19.0640 c3         1 T2R      -0.091600
     21 C15         19.2340    23.3890    20.5830 c3         1 T2R      -0.091600
     22 C16         16.7910    24.7350    17.0660 c3         1 T2R       0.177800
     23 C17         15.5570    23.9160    17.4620 c3         1 T2R       0.149300
     24 O18         14.4730    24.7760    17.7290 oh         1 T2R      -0.659000
     25 C19         15.1020    22.9040    16.4100 c3         1 T2R       0.141700
     26 N20         14.2040    21.9560    17.0320 ns         1 T2R      -0.499900
     27 C21         14.4150    20.6290    17.0400 c          1 T2R       0.638100
     28 O22         15.3730    20.0630    16.5510 o          1 T2R      -0.548000
     29 O23         13.4150    20.0020    17.6740 os         1 T2R      -0.439100
     30 C32         14.4400    23.5420    15.1790 c3         1 T2R      -0.037100
     31 C33         12.7310    22.0030    14.1550 ca         1 T2R      -0.097500
     32 C34         12.3550    21.0190    13.2490 ca         1 T2R      -0.114500
     33 C35         13.2800    20.5190    12.3420 ca         1 T2R      -0.113000
     34 C36         14.5790    21.0100    12.3490 ca         1 T2R      -0.114500
     35 C37         14.9500    21.9920    13.2580 ca         1 T2R      -0.097500
     36 C38         14.0300    22.5040    14.1720 ca         1 T2R      -0.082300
     37 C24         13.5590    18.6070    17.9340 c6         1 T2R       0.171300
     38 C25         14.5190    18.3160    19.0930 c6         1 T2R      -0.095400
     39 C26         12.4970    17.5630    20.4340 c5         1 T2R      -0.130700
     40 C27         12.2570    16.8420    19.1150 c5         1 T2R      -0.104400
     41 O28         12.1000    19.8170    20.9910 os         1 T2R      -0.449000
     42 C29         11.5240    18.7350    20.3450 c5         1 T2R       0.374300
     43 O30         11.3540    18.9690    18.9610 os         1 T2R      -0.452000
     44 C31         12.1480    18.0630    18.2110 c5         1 T2R       0.170300
     45 C41         13.8600    18.2910    20.4730 c5         1 T2R      -0.089700
     46 C42         13.5150    19.6840    21.0190 c5         1 T2R       0.157600
     47 H1          23.6860    30.2680    15.5610 hn         1 T2R       0.518000
     48 H2          25.0550    27.8310    16.4780 h1         1 T2R       0.073700
     49 H3          26.9450    29.3760    16.8620 hc         1 T2R       0.048367
     50 H4          26.3300    29.5270    15.2150 hc         1 T2R       0.048367
     51 H5          25.9340    30.7520    16.4290 hc         1 T2R       0.048367
     52 H6          23.6640    28.4900    18.4520 hc         1 T2R       0.048367
     53 H7          25.3810    28.7330    18.7650 hc         1 T2R       0.048367
     54 H8          24.3520    30.1170    18.3840 hc         1 T2R       0.048367
     55 H9          21.4270    24.7970    16.3470 ha         1 T2R       0.149000
     56 H10         17.9440    26.2150    14.2100 ha         1 T2R       0.137000
     57 H11         18.9650    28.4360    13.9190 ha         1 T2R       0.138000
     58 H12         19.8390    23.5570    17.9710 h1         1 T2R       0.051200
     59 H13         19.0230    25.0290    18.4890 h1         1 T2R       0.051200
     60 H14         17.3310    23.6360    19.6720 hc         1 T2R       0.041700
     61 H15         17.7120    21.1890    19.9240 hc         1 T2R       0.040033
     62 H16         17.4270    21.5720    18.2310 hc         1 T2R       0.040033
     63 H17         19.0670    21.2700    18.7990 hc         1 T2R       0.040033
     64 H18         18.8430    22.8810    21.4650 hc         1 T2R       0.040033
     65 H19         20.2230    22.9760    20.3730 hc         1 T2R       0.040033
     66 H20         19.3590    24.4440    20.8350 hc         1 T2R       0.040033
     67 H21         16.9400    25.5190    17.8150 h1         1 T2R       0.054700
     68 H22         16.6080    25.2490    16.1220 h1         1 T2R       0.054700
     69 H23         15.8100    23.3340    18.3560 h1         1 T2R       0.050700
     70 H24         14.6490    25.2540    18.5460 ho         1 T2R       0.443000
     71 H25         15.9820    22.3470    16.0880 h1         1 T2R       0.100700
     72 H26         13.3610    22.3120    17.4560 hn         1 T2R       0.334500
     73 H27         15.1330    24.2490    14.7220 hc         1 T2R       0.061200
     74 H28         13.5630    24.1110    15.4920 hc         1 T2R       0.061200
     75 H30         11.3390    20.6450    13.2500 ha         1 T2R       0.108000
     76 H31         12.9900    19.7540    11.6330 ha         1 T2R       0.106000
     77 H32         15.3070    20.6280    11.6450 ha         1 T2R       0.108000
     78 H33         15.9650    22.3670    13.2590 ha         1 T2R       0.121500
     79 H34         13.9340    18.1050    17.0380 h1         1 T2R       0.070700
     80 H35         14.9620    17.3360    18.9040 hc         1 T2R       0.059200
     81 H36         15.3610    19.0130    19.0910 hc         1 T2R       0.059200
     82 H37         12.3310    16.9480    21.3190 hc         1 T2R       0.078700
     83 H38         11.3190    16.2840    19.1340 hc         1 T2R       0.064200
     84 H39         13.0490    16.1480    18.8310 hc         1 T2R       0.064200
     85 H40         10.5410    18.5690    20.7920 h2         1 T2R       0.096700
     86 H41         11.6310    17.8760    17.2670 h1         1 T2R       0.086700
     87 H42         14.5420    17.7870    21.1600 hc         1 T2R       0.061700
     88 H43         13.8480    19.8060    22.0530 h1         1 T2R       0.047700
     89 H44         13.9830    20.4790    20.4300 h1         1 T2R       0.047700
     90 H29         12.0010    22.3910    14.8560 ha         1 T2R       0.121500
@<TRIPOS>BOND
     1     1     2 1   
     2     1     6 1   
     3     1     7 2   
     4     2     3 1   
     5     2    47 1   
     6     3     4 1   
     7     3     5 1   
     8     3    48 1   
     9     4    49 1   
    10     4    50 1   
    11     4    51 1   
    12     5    52 1   
    13     5    53 1   
    14     5    54 1   
    15     6     9 1   
    16     7     8 1   
    17     8     9 ar  
    18     8    13 ar  
    19     9    10 ar  
    20    10    11 ar  
    21    10    55 1   
    22    11    12 ar  
    23    11    14 1   
    24    12    13 ar  
    25    12    56 1   
    26    13    57 1   
    27    14    15 2   
    28    14    16 2   
    29    14    17 1   
    30    17    18 1   
    31    17    22 1   
    32    18    19 1   
    33    18    58 1   
    34    18    59 1   
    35    19    20 1   
    36    19    21 1   
    37    19    60 1   
    38    20    61 1   
    39    20    62 1   
    40    20    63 1   
    41    21    64 1   
    42    21    65 1   
    43    21    66 1   
    44    22    23 1   
    45    22    67 1   
    46    22    68 1   
    47    23    24 1   
    48    23    25 1   
    49    23    69 1   
    50    24    70 1   
    51    25    26 1   
    52    25    30 1   
    53    25    71 1   
    54    26    27 1   
    55    26    72 1   
    56    27    28 2   
    57    27    29 1   
    58    29    37 1   
    59    30    36 1   
    60    30    73 1   
    61    30    74 1   
    62    31    32 ar  
    63    31    36 ar  
    64    31    90 1   
    65    32    33 ar  
    66    32    75 1   
    67    33    34 ar  
    68    33    76 1   
    69    34    35 ar  
    70    34    77 1   
    71    35    36 ar  
    72    35    78 1   
    73    37    38 1   
    74    37    44 1   
    75    37    79 1   
    76    38    45 1   
    77    38    80 1   
    78    38    81 1   
    79    39    40 1   
    80    39    42 1   
    81    39    45 1   
    82    39    82 1   
    83    40    44 1   
    84    40    83 1   
    85    40    84 1   
    86    41    42 1   
    87    41    46 1   
    88    42    43 1   
    89    42    85 1   
    90    43    44 1   
    91    44    86 1   
    92    45    46 1   
    93    45    87 1   
    94    46    88 1   
    95    46    89 1   
@<TRIPOS>SUBSTRUCTURE
     1 T2R         1 TEMP              0 ****  ****    0 ROOT
