@<TRIPOS>MOLECULE
T2R
   90    95     1     0     0
SMALL
No Charge or Current Charge


@<TRIPOS>ATOM
      1 C53         22.4860    28.7540    16.2280 cc         1 T2R       0.796500
      2 N54         23.4960    29.5490    16.6380 nu         1 T2R      -0.885400
      3 C55         24.8030    29.1190    17.1260 c3         1 T2R       0.246500
      4 C56         25.8650    30.1530    16.7120 c3         1 T2R      -0.113100
      5 C57         24.7390    28.9250    18.6520 c3         1 T2R      -0.113100
      6 O51         22.5710    27.3780    16.3490 os         1 T2R      -0.303700
      7 N52         21.3810    29.2700    15.6980 nd         1 T2R      -0.673100
      8 C2          20.6640    28.1190    15.4460 ca         1 T2R       0.161400
      9 C3          21.3720    27.0160    15.8310 ca         1 T2R      -0.023900
     10 C4          20.8760    25.7150    15.6880 ca         1 T2R       0.019000
     11 C5          19.5870    25.5620    15.1240 ca         1 T2R      -0.323500
     12 C6          18.8490    26.7050    14.7140 ca         1 T2R      -0.021000
     13 C7          19.3910    27.9990    14.8780 ca         1 T2R      -0.101000
     14 S8          18.8940    23.9120    14.9240 sy         1 T2R       1.163600
     15 O9          17.8480    23.9330    13.8960 o          1 T2R      -0.532000
     16 O10         19.9780    22.9260    14.8580 o          1 T2R      -0.532000
     17 N11         18.0940    23.6560    16.4160 n3         1 T2R      -0.727500
     18 C12         19.0300    23.5580    17.5730 c3         1 T2R       0.200800
     19 C13         18.4740    22.9320    18.8810 c3         1 T2R      -0.060700
     20 C14         17.9620    21.4850    18.6730 c3         1 T2R      -0.091600
     21 C15         19.5350    22.9760    20.0040 c3         1 T2R      -0.091600
     22 C16         16.9310    24.5670    16.6440 c3         1 T2R       0.177800
     23 C17         15.6320    23.8700    17.1530 c3         1 T2R       0.149300
     24 O18         14.6090    24.8520    17.4200 oh         1 T2R      -0.659000
     25 C19         15.0970    22.7730    16.1800 c3         1 T2R       0.141700
     26 N20         14.1570    21.8920    16.8850 ns         1 T2R      -0.499900
     27 C21         14.2590    20.5340    16.9530 c          1 T2R       0.638100
     28 O22         15.1240    19.8610    16.4160 o          1 T2R      -0.548000
     29 O23         13.2760    20.0670    17.7690 os         1 T2R      -0.439100
     30 C32         14.4680    23.3100    14.8660 c3         1 T2R      -0.037100
     31 C33         12.7120    21.7860    13.8220 ca         1 T2R      -0.097500
     32 C34         12.3420    20.7480    12.9490 ca         1 T2R      -0.114500
     33 C35         13.3140    20.1110    12.1600 ca         1 T2R      -0.113000
     34 C36         14.6580    20.5130    12.2450 ca         1 T2R      -0.114500
     35 C37         15.0290    21.5500    13.1180 ca         1 T2R      -0.097500
     36 C38         14.0590    22.1930    13.9110 ca         1 T2R      -0.082300
     37 C24         13.2210    18.6710    18.1430 c6         1 T2R       0.171300
     38 C25         14.3780    18.2970    19.1200 c6         1 T2R      -0.095400
     39 C26         12.5480    17.9040    20.9960 c5         1 T2R      -0.130700
     40 C27         11.9180    17.1340    19.7920 c5         1 T2R      -0.104400
     41 O28         12.5030    20.1990    21.4990 os         1 T2R      -0.449000
     42 C29         11.6540    19.1590    20.9900 c5         1 T2R       0.374300
     43 O30         11.3210    19.4040    19.5980 os         1 T2R      -0.452000
     44 C31         11.8330    18.3100    18.7790 c5         1 T2R       0.170300
     45 C41         13.9660    18.4910    20.6070 c5         1 T2R      -0.089700
     46 C42         13.8450    20.0000    21.0090 c5         1 T2R       0.157600
     47 H1          23.3300    30.5290    16.4330 hn         1 T2R       0.518000
     48 H2          25.0740    28.1550    16.6680 h1         1 T2R       0.073700
     49 H3          26.8590    29.8350    17.0490 hc         1 T2R       0.048367
     50 H4          25.8970    30.2590    15.6210 hc         1 T2R       0.048367
     51 H5          25.6530    31.1350    17.1510 hc         1 T2R       0.048367
     52 H6          23.9920    28.1660    18.9140 hc         1 T2R       0.048367
     53 H7          25.7100    28.5910    19.0370 hc         1 T2R       0.048367
     54 H8          24.4730    29.8610    19.1560 hc         1 T2R       0.048367
     55 H9          21.4720    24.8610    16.0060 ha         1 T2R       0.149000
     56 H10         17.8610    26.5980    14.2700 ha         1 T2R       0.137000
     57 H11         18.8360    28.8800    14.5700 ha         1 T2R       0.138000
     58 H12         19.9020    22.9500    17.3000 h1         1 T2R       0.051200
     59 H13         19.4160    24.5590    17.8110 h1         1 T2R       0.051200
     60 H14         17.6410    23.5500    19.2320 hc         1 T2R       0.041700
     61 H15         17.5180    21.0940    19.5970 hc         1 T2R       0.040033
     62 H16         17.1990    21.4390    17.8900 hc         1 T2R       0.040033
     63 H17         18.7840    20.8210    18.3800 hc         1 T2R       0.040033
     64 H18         19.1250    22.5800    20.9410 hc         1 T2R       0.040033
     65 H19         20.4160    22.3800    19.7360 hc         1 T2R       0.040033
     66 H20         19.8620    24.0070    20.1890 hc         1 T2R       0.040033
     67 H21         17.2130    25.3520    17.3590 h1         1 T2R       0.054700
     68 H22         16.6560    25.0980    15.7240 h1         1 T2R       0.054700
     69 H23         15.8720    23.3580    18.0900 h1         1 T2R       0.050700
     70 H24         14.8690    25.3370    18.2340 ho         1 T2R       0.443000
     71 H25         15.9650    22.1650    15.8900 h1         1 T2R       0.100700
     72 H26         13.3960    22.3090    17.4030 hn         1 T2R       0.334500
     73 H27         15.1800    23.9730    14.3630 hc         1 T2R       0.061200
     74 H28         13.5990    23.9330    15.1080 hc         1 T2R       0.061200
     75 H30         11.3010    20.4370    12.8860 ha         1 T2R       0.108000
     76 H31         13.0270    19.3080    11.4850 ha         1 T2R       0.106000
     77 H32         15.4120    20.0200    11.6350 ha         1 T2R       0.108000
     78 H33         16.0720    21.8530    13.1800 ha         1 T2R       0.121500
     79 H34         13.3390    18.0710    17.2280 h1         1 T2R       0.070700
     80 H35         14.6520    17.2450    18.9600 hc         1 T2R       0.059200
     81 H36         15.2890    18.8700    18.9030 hc         1 T2R       0.059200
     82 H37         12.5300    17.3640    21.9500 hc         1 T2R       0.078700
     83 H38         10.9230    16.7400    20.0340 hc         1 T2R       0.064200
     84 H39         12.5210    16.2890    19.4400 hc         1 T2R       0.064200
     85 H40         10.7440    19.0400    21.5940 h2         1 T2R       0.096700
     86 H41         11.1230    18.1060    17.9660 h1         1 T2R       0.086700
     87 H42         14.7570    18.0080    21.1920 hc         1 T2R       0.061700
     88 H43         14.5570    20.2740    21.7990 h1         1 T2R       0.047700
     89 H44         14.0140    20.6720    20.1580 h1         1 T2R       0.047700
     90 H29         11.9530    22.2700    14.4330 ha         1 T2R       0.121500
@<TRIPOS>BOND
     1     1     2 1   
     2     1     6 1   
     3     1     7 2   
     4     2     3 1   
     5     2    47 1   
     6     3     4 1   
     7     3     5 1   
     8     3    48 1   
     9     4    49 1   
    10     4    50 1   
    11     4    51 1   
    12     5    52 1   
    13     5    53 1   
    14     5    54 1   
    15     6     9 1   
    16     7     8 1   
    17     8     9 ar  
    18     8    13 ar  
    19     9    10 ar  
    20    10    11 ar  
    21    10    55 1   
    22    11    12 ar  
    23    11    14 1   
    24    12    13 ar  
    25    12    56 1   
    26    13    57 1   
    27    14    15 2   
    28    14    16 2   
    29    14    17 1   
    30    17    18 1   
    31    17    22 1   
    32    18    19 1   
    33    18    58 1   
    34    18    59 1   
    35    19    20 1   
    36    19    21 1   
    37    19    60 1   
    38    20    61 1   
    39    20    62 1   
    40    20    63 1   
    41    21    64 1   
    42    21    65 1   
    43    21    66 1   
    44    22    23 1   
    45    22    67 1   
    46    22    68 1   
    47    23    24 1   
    48    23    25 1   
    49    23    69 1   
    50    24    70 1   
    51    25    26 1   
    52    25    30 1   
    53    25    71 1   
    54    26    27 1   
    55    26    72 1   
    56    27    28 2   
    57    27    29 1   
    58    29    37 1   
    59    30    36 1   
    60    30    73 1   
    61    30    74 1   
    62    31    32 ar  
    63    31    36 ar  
    64    31    90 1   
    65    32    33 ar  
    66    32    75 1   
    67    33    34 ar  
    68    33    76 1   
    69    34    35 ar  
    70    34    77 1   
    71    35    36 ar  
    72    35    78 1   
    73    37    38 1   
    74    37    44 1   
    75    37    79 1   
    76    38    45 1   
    77    38    80 1   
    78    38    81 1   
    79    39    40 1   
    80    39    42 1   
    81    39    45 1   
    82    39    82 1   
    83    40    44 1   
    84    40    83 1   
    85    40    84 1   
    86    41    42 1   
    87    41    46 1   
    88    42    43 1   
    89    42    85 1   
    90    43    44 1   
    91    44    86 1   
    92    45    46 1   
    93    45    87 1   
    94    46    88 1   
    95    46    89 1   
@<TRIPOS>SUBSTRUCTURE
     1 T2R         1 TEMP              0 ****  ****    0 ROOT
