@<TRIPOS>MOLECULE
T2U
   14    15     1     0     0
SMALL
abcg2


@<TRIPOS>ATOM
      1 C4         -20.1290   -13.9240   -34.7630 ca         1 T2U      -0.091000
      2 C5         -20.7190   -15.1850   -34.8360 ca         1 T2U      -0.087000
      3 C6         -21.5590   -15.3810   -35.9130 ca         1 T2U       0.033100
      4 N          -22.7200   -14.9590   -37.8190 nc         1 T2U      -0.547100
      5 C          -22.9300   -16.1490   -37.3870 cd         1 T2U       0.571600
      6 O          -22.2820   -16.5120   -36.2470 os         1 T2U      -0.281700
      7 C1         -21.8260   -14.4150   -36.8840 ca         1 T2U       0.058400
      8 C2         -21.2320   -13.1610   -36.8010 ca         1 T2U      -0.044000
      9 C3         -20.3810   -12.9350   -35.7240 ca         1 T2U      -0.123000
     10 CL         -23.9330   -17.3300   -38.0770 cl         1 T2U      -0.007300
     11 H1         -19.4600   -13.7040   -33.9420 ha         1 T2U       0.121000
     12 H2         -20.5320   -15.9530   -34.1000 ha         1 T2U       0.138000
     13 H3         -21.4260   -12.3970   -37.5420 ha         1 T2U       0.137000
     14 H4         -19.9000   -11.9710   -35.6230 ha         1 T2U       0.121000
@<TRIPOS>BOND
     1     1     2 ar  
     2     1     9 ar  
     3     1    11 1   
     4     2     3 ar  
     5     2    12 1   
     6     3     6 1   
     7     3     7 ar  
     8     4     5 2   
     9     4     7 1   
    10     5     6 1   
    11     5    10 1   
    12     7     8 ar  
    13     8     9 ar  
    14     8    13 1   
    15     9    14 1   
@<TRIPOS>SUBSTRUCTURE
     1 T2U         1 TEMP              0 ****  ****    0 ROOT
