@<TRIPOS>MOLECULE
T2U
   14    15     1     0     0
SMALL
No Charge or Current Charge


@<TRIPOS>ATOM
      1 C4         -20.1050   -13.9120   -34.7380 ca         1 T2U      -0.091000
      2 C5         -20.7190   -15.1790   -34.8360 ca         1 T2U      -0.087000
      3 C6         -21.5730   -15.3890   -35.9220 ca         1 T2U       0.033100
      4 N          -22.7280   -14.9150   -37.8530 nc         1 T2U      -0.547100
      5 C          -22.9390   -16.1640   -37.3910 cd         1 T2U       0.571600
      6 O          -22.2710   -16.4900   -36.2410 os         1 T2U      -0.281700
      7 C1         -21.8400   -14.4410   -36.8810 ca         1 T2U       0.058400
      8 C2         -21.2370   -13.1770   -36.7960 ca         1 T2U      -0.044000
      9 C3         -20.3640   -12.9170   -35.7130 ca         1 T2U      -0.123000
     10 Cl         -23.9590   -17.3750   -38.1000 cl         1 T2U      -0.007300
     11 H1         -19.4320   -13.6990   -33.9100 ha         1 T2U       0.121000
     12 H2         -20.5370   -15.9590   -34.1010 ha         1 T2U       0.138000
     13 H3         -21.4380   -12.4160   -37.5460 ha         1 T2U       0.137000
     14 H4         -19.8870   -11.9430   -35.6290 ha         1 T2U       0.121000
@<TRIPOS>BOND
     1     1     2 ar  
     2     1     9 ar  
     3     1    11 1   
     4     2     3 ar  
     5     2    12 1   
     6     3     6 1   
     7     3     7 ar  
     8     4     5 2   
     9     4     7 1   
    10     5     6 1   
    11     5    10 1   
    12     7     8 ar  
    13     8     9 ar  
    14     8    13 1   
    15     9    14 1   
@<TRIPOS>SUBSTRUCTURE
     1 T2U         1 TEMP              0 ****  ****    0 ROOT
