@<TRIPOS>MOLECULE
T2V
   34    36     1     0     0
SMALL
abcg2


@<TRIPOS>ATOM
      1 N1           1.3200    -0.5710    -1.0780 nc         1 T2V      -0.530100
      2 C4          -1.3270     1.7970    -0.8150 c6         1 T2V      -0.070400
      3 C5          -0.9140     0.3380    -0.5890 c6         1 T2V      -0.115000
      4 C6          -1.6990    -0.2560     0.5940 c6         1 T2V       0.106000
      5 C7           0.5550     0.1870    -0.3760 cd         1 T2V       0.401200
      6 C8           2.6220    -0.5230    -0.6370 ca         1 T2V       0.090400
      7 C10          4.9470    -1.0810    -0.6340 ca         1 T2V      -0.112000
      8 C13          2.8450     0.3200     0.4630 ca         1 T2V      -0.179000
      9 N           -3.1200    -0.1150     0.3730 n          1 T2V      -0.412800
     10 C           -3.4090    -2.5430     0.1990 c3         1 T2V      -0.178100
     11 O           -5.1460    -0.9530    -0.1540 o          1 T2V      -0.601100
     12 C1          -3.9680    -1.1410     0.1180 c          1 T2V       0.608100
     13 C11          5.1550    -0.2360     0.4630 ca         1 T2V      -0.098000
     14 C12          4.1080     0.4730     1.0240 ca         1 T2V      -0.073000
     15 C2          -3.5460     1.2670     0.2260 c6         1 T2V       0.090000
     16 C3          -2.8400     1.9120    -0.9590 c6         1 T2V      -0.098400
     17 C9           3.6910    -1.2300    -1.1900 ca         1 T2V      -0.053000
     18 S            1.3510     1.0580     0.9220 ss         1 T2V       0.008800
     19 H8          -1.0020     2.4070     0.0360 hc         1 T2V       0.050700
     20 H7          -0.8210     2.1910    -1.6980 hc         1 T2V       0.050700
     21 H9          -1.1560    -0.2440    -1.4830 hc         1 T2V       0.086700
     22 H11         -1.4270    -1.2970     0.7450 h1         1 T2V       0.057200
     23 H10         -1.4350     0.2740     1.5160 h1         1 T2V       0.057200
     24 H13          5.7840    -1.6260    -1.0500 ha         1 T2V       0.119000
     25 H           -2.6280    -2.7120    -0.5430 hc         1 T2V       0.062033
     26 H1          -2.9820    -2.7570     1.1790 hc         1 T2V       0.062033
     27 H2          -4.2120    -3.2510     0.0130 hc         1 T2V       0.062033
     28 H14          6.1480    -0.1370     0.8800 ha         1 T2V       0.117000
     29 H15          4.2690     1.1240     1.8730 ha         1 T2V       0.125000
     30 H3          -4.6260     1.3050     0.1140 h1         1 T2V       0.062700
     31 H4          -3.2900     1.8040     1.1460 h1         1 T2V       0.062700
     32 H5          -3.1280     2.9630    -1.0270 hc         1 T2V       0.054700
     33 H6          -3.1670     1.4280    -1.8830 hc         1 T2V       0.054700
     34 H12          3.5280    -1.8810    -2.0380 ha         1 T2V       0.132000
@<TRIPOS>BOND
     1     1     5 2   
     2     1     6 1   
     3     2     3 1   
     4     2    16 1   
     5     2    19 1   
     6     2    20 1   
     7     3     4 1   
     8     3     5 1   
     9     3    21 1   
    10     4     9 1   
    11     4    22 1   
    12     4    23 1   
    13     5    18 1   
    14     6     8 ar  
    15     6    17 ar  
    16     7    13 ar  
    17     7    17 ar  
    18     7    24 1   
    19     8    14 ar  
    20     8    18 1   
    21     9    12 1   
    22     9    15 1   
    23    10    12 1   
    24    10    25 1   
    25    10    26 1   
    26    10    27 1   
    27    11    12 2   
    28    13    14 ar  
    29    13    28 1   
    30    14    29 1   
    31    15    16 1   
    32    15    30 1   
    33    15    31 1   
    34    16    32 1   
    35    16    33 1   
    36    17    34 1   
@<TRIPOS>SUBSTRUCTURE
     1 T2V         1 TEMP              0 ****  ****    0 ROOT
