@<TRIPOS>MOLECULE
T2V
   34    36     1     0     0
SMALL
No Charge or Current Charge


@<TRIPOS>ATOM
      1 N1           1.3540    -0.5390    -1.1550 nc         1 T2V      -0.530100
      2 C4          -1.2980     1.8140    -0.8200 c6         1 T2V      -0.070400
      3 C5          -0.8940     0.3330    -0.5680 c6         1 T2V      -0.115000
      4 C6          -1.7070    -0.2550     0.6130 c6         1 T2V       0.106000
      5 C7           0.5960     0.1930    -0.3220 cd         1 T2V       0.401200
      6 C8           2.6550    -0.4830    -0.6650 ca         1 T2V       0.090400
      7 C10          5.0290    -1.0180    -0.7060 ca         1 T2V      -0.112000
      8 C13          2.8640     0.2560     0.4860 ca         1 T2V      -0.179000
      9 N           -3.1690    -0.1140     0.3640 n          1 T2V      -0.412800
     10 C           -3.5370    -2.6310     0.3030 c3         1 T2V      -0.178100
     11 O           -5.1980    -1.0080    -0.2470 o          1 T2V      -0.601100
     12 C1          -4.0410    -1.2000     0.1060 c          1 T2V       0.608100
     13 C11          5.2230    -0.2610     0.4670 ca         1 T2V      -0.098000
     14 C12          4.1310     0.3860     1.0740 ca         1 T2V      -0.073000
     15 C2          -3.5900     1.3000     0.1770 c6         1 T2V       0.090000
     16 C3          -2.8310     1.9420    -1.0090 c6         1 T2V      -0.098400
     17 C9           3.7440    -1.1300    -1.2740 ca         1 T2V      -0.053000
     18 S            1.3820     0.9760     1.0790 ss         1 T2V       0.008800
     19 H8          -0.9850     2.4430     0.0250 hc         1 T2V       0.050700
     20 H7          -0.7790     2.2020    -1.7070 hc         1 T2V       0.050700
     21 H9          -1.1550    -0.2440    -1.4660 hc         1 T2V       0.086700
     22 H11         -1.4140    -1.3000     0.7720 h1         1 T2V       0.057200
     23 H10         -1.4580     0.2850     1.5390 h1         1 T2V       0.057200
     24 H13          5.8740    -1.5180    -1.1750 ha         1 T2V       0.119000
     25 H           -2.6790    -2.8030    -0.3560 hc         1 T2V       0.062033
     26 H1          -3.1020    -2.7270     1.3040 hc         1 T2V       0.062033
     27 H2          -4.3200    -3.3780     0.1330 hc         1 T2V       0.062033
     28 H14          6.2160    -0.1760     0.9040 ha         1 T2V       0.117000
     29 H15          4.2680     0.9740     1.9800 ha         1 T2V       0.125000
     30 H3          -4.6720     1.3730     0.0030 h1         1 T2V       0.062700
     31 H4          -3.3740     1.8620     1.0970 h1         1 T2V       0.062700
     32 H5          -3.1120     3.0000    -1.1040 hc         1 T2V       0.054700
     33 H6          -3.1320     1.4520    -1.9450 hc         1 T2V       0.054700
     34 H12          3.5930    -1.7140    -2.1790 ha         1 T2V       0.132000
@<TRIPOS>BOND
     1     1     5 2   
     2     1     6 1   
     3     2     3 1   
     4     2    16 1   
     5     2    19 1   
     6     2    20 1   
     7     3     4 1   
     8     3     5 1   
     9     3    21 1   
    10     4     9 1   
    11     4    22 1   
    12     4    23 1   
    13     5    18 1   
    14     6     8 ar  
    15     6    17 ar  
    16     7    13 ar  
    17     7    17 ar  
    18     7    24 1   
    19     8    14 ar  
    20     8    18 1   
    21     9    12 1   
    22     9    15 1   
    23    10    12 1   
    24    10    25 1   
    25    10    26 1   
    26    10    27 1   
    27    11    12 2   
    28    13    14 ar  
    29    13    28 1   
    30    14    29 1   
    31    15    16 1   
    32    15    30 1   
    33    15    31 1   
    34    16    32 1   
    35    16    33 1   
    36    17    34 1   
@<TRIPOS>SUBSTRUCTURE
     1 T2V         1 TEMP              0 ****  ****    0 ROOT
