@<TRIPOS>MOLECULE
T2W
   78    79     1     0     0
SMALL
abcg2


@<TRIPOS>ATOM
      1 N1          30.4300   -30.4930   -33.9830 ns         1 T2W      -0.508900
      2 C6          20.4580   -35.3370   -22.4530 c3         1 T2W      -0.100100
      3 C5          19.1230   -33.6040   -23.6190 c3         1 T2W      -0.100100
      4 C4          20.4950   -34.2780   -23.5490 c6         1 T2W       0.198000
      5 C2          23.3760   -31.6970   -24.0790 c3         1 T2W      -0.118100
      6 O2          25.2840   -33.5090   -35.6510 o          1 T2W      -0.609100
      7 O4          28.4660   -30.1550   -35.0550 o          1 T2W      -0.537000
      8 C11         20.2700   -35.7310   -30.4750 c2         1 T2W      -0.204200
      9 C17         22.3210   -36.3530   -34.5880 c6         1 T2W      -0.089400
     10 C18         20.8600   -36.0500   -34.2860 c6         1 T2W      -0.070900
     11 C19         25.5000   -34.5010   -34.9610 c          1 T2W       0.598300
     12 C21         27.9690   -34.1920   -34.6700 c2         1 T2W      -0.134200
     13 C22         28.1230   -32.8420   -35.3010 c3         1 T2W       0.221500
     14 C23         28.4180   -32.9680   -36.7900 c3         1 T2W      -0.108100
     15 C24         29.3080   -30.9010   -34.5940 c          1 T2W       0.641100
     16 C25         30.7350   -29.0930   -33.8140 c3         1 T2W       0.113300
     17 C26         22.1210   -36.9250   -29.2600 c3         1 T2W      -0.052900
     18 O1          20.7730   -34.9960   -24.7490 os         1 T2W      -0.461000
     19 N           24.5170   -35.3100   -34.5280 ns         1 T2W      -0.502900
     20 C           22.2720   -33.3170   -25.6410 c6         1 T2W      -0.094400
     21 O           21.0860   -31.4670   -24.7890 oh         1 T2W      -0.659000
     22 C1          22.0760   -32.4180   -24.4250 c6         1 T2W       0.185000
     23 C10         21.0030   -35.9320   -29.3680 ce         1 T2W      -0.079200
     24 C13         20.7030   -35.3540   -32.9200 c6         1 T2W      -0.058700
     25 C14         21.9520   -34.5230   -32.5930 c6         1 T2W      -0.070900
     26 C15         22.5550   -33.9380   -33.8620 c6         1 T2W      -0.089400
     27 C16         23.1100   -35.0510   -34.7730 c6         1 T2W       0.115700
     28 C3          21.6320   -33.2910   -23.2460 c6         1 T2W      -0.129400
     29 C7          21.0640   -34.2160   -25.8950 c6         1 T2W       0.212500
     30 C8          21.3490   -35.1590   -27.0200 c2         1 T2W      -0.206200
     31 C9          20.7090   -35.1160   -28.1900 ce         1 T2W      -0.170000
     32 O3          29.2360   -32.2380   -34.6240 os         1 T2W      -0.480100
     33 H1          31.0760   -31.1790   -33.6300 hn         1 T2W       0.326500
     34 H2          20.2810   -34.8720   -21.4820 hc         1 T2W       0.042700
     35 H3          19.6550   -36.0560   -22.6280 hc         1 T2W       0.042700
     36 H4          21.4020   -35.8810   -22.3980 hc         1 T2W       0.042700
     37 H5          18.9050   -33.1030   -22.6740 hc         1 T2W       0.042700
     38 H6          19.0460   -32.8560   -24.4050 hc         1 T2W       0.042700
     39 H7          18.3440   -34.3520   -23.7810 hc         1 T2W       0.042700
     40 H8          23.2420   -31.0440   -23.2120 hc         1 T2W       0.042033
     41 H9          24.1720   -32.4040   -23.8420 hc         1 T2W       0.042033
     42 H10         23.7100   -31.0820   -24.9160 hc         1 T2W       0.042033
     43 H11         19.4890   -34.9750   -30.4180 ha         1 T2W       0.167000
     44 H12         19.4680   -36.8850   -32.0620 hc         1 T2W       0.045200
     45 H13         21.1830   -37.1450   -31.8160 hc         1 T2W       0.045200
     46 H14         22.4190   -36.9780   -35.4780 hc         1 T2W       0.048950
     47 H15         22.7430   -36.9320   -33.7590 hc         1 T2W       0.048950
     48 H16         20.4540   -35.4190   -35.0810 hc         1 T2W       0.043200
     49 H17         20.2710   -36.9710   -34.3070 hc         1 T2W       0.043200
     50 H18         28.8920   -34.6380   -34.3130 ha         1 T2W       0.181000
     51 H19         27.2300   -32.2380   -35.1520 h1         1 T2W       0.106700
     52 H20         28.5720   -31.9880   -37.2420 hc         1 T2W       0.051700
     53 H21         29.3070   -33.5750   -36.9650 hc         1 T2W       0.051700
     54 H22         27.5760   -33.4430   -37.2910 hc         1 T2W       0.051700
     55 H23         31.6960   -29.0130   -33.3140 h1         1 T2W       0.040367
     56 H24         30.8060   -28.5750   -34.7710 h1         1 T2W       0.040367
     57 H25         29.9900   -28.5840   -33.2020 h1         1 T2W       0.040367
     58 H26         21.9270   -37.6480   -28.4640 hc         1 T2W       0.040033
     59 H27         22.2780   -37.4830   -30.1800 hc         1 T2W       0.040033
     60 H28         23.0610   -36.4290   -29.0100 hc         1 T2W       0.040033
     61 H29         24.7550   -36.0770   -33.9170 hn         1 T2W       0.309500
     62 H30         23.1530   -33.9450   -25.4780 hc         1 T2W       0.058200
     63 H31         22.4720   -32.7090   -26.5270 hc         1 T2W       0.058200
     64 H32         20.8710   -30.9420   -24.0110 ho         1 T2W       0.440000
     65 H33         19.8490   -34.6710   -32.9830 hc         1 T2W       0.048700
     66 H34         22.6990   -35.1490   -32.0910 hc         1 T2W       0.043200
     67 H35         21.7040   -33.7310   -31.8850 hc         1 T2W       0.043200
     68 H36         23.3420   -33.2190   -33.6330 hc         1 T2W       0.048950
     69 H37         21.7860   -33.3800   -34.4040 hc         1 T2W       0.048950
     70 H38         23.0130   -34.7300   -35.8130 h1         1 T2W       0.072700
     71 H39         26.9470   -35.8900   -34.0640 ha         1 T2W       0.176000
     72 H40         22.5030   -33.8670   -22.9190 hc         1 T2W       0.049700
     73 H41         21.3510   -32.6590   -22.3960 hc         1 T2W       0.049700
     74 H42         20.2020   -33.5940   -26.1720 h1         1 T2W       0.051700
     75 H43         22.1630   -35.8610   -26.8580 ha         1 T2W       0.177000
     76 H44         19.9000   -34.3970   -28.3070 ha         1 T2W       0.170000
     77 C20         26.8590   -34.9180   -34.5370 ce         1 T2W      -0.293200
     78 C12         20.4060   -36.3760   -31.8140 c3         1 T2W      -0.039200
@<TRIPOS>BOND
     1     1    15 1   
     2     1    16 1   
     3     1    33 1   
     4     2     4 1   
     5     2    34 1   
     6     2    35 1   
     7     2    36 1   
     8     3     4 1   
     9     3    37 1   
    10     3    38 1   
    11     3    39 1   
    12     4    18 1   
    13     4    28 1   
    14     5    22 1   
    15     5    40 1   
    16     5    41 1   
    17     5    42 1   
    18     6    11 2   
    19     7    15 2   
    20     8    23 2   
    21     8    43 1   
    22     8    78 1   
    23     9    10 1   
    24     9    27 1   
    25     9    46 1   
    26     9    47 1   
    27    10    24 1   
    28    10    48 1   
    29    10    49 1   
    30    11    19 1   
    31    11    77 1   
    32    12    13 1   
    33    12    50 1   
    34    12    77 2   
    35    13    14 1   
    36    13    32 1   
    37    13    51 1   
    38    14    52 1   
    39    14    53 1   
    40    14    54 1   
    41    15    32 1   
    42    16    55 1   
    43    16    56 1   
    44    16    57 1   
    45    17    23 1   
    46    17    58 1   
    47    17    59 1   
    48    17    60 1   
    49    18    29 1   
    50    19    27 1   
    51    19    61 1   
    52    20    22 1   
    53    20    29 1   
    54    20    62 1   
    55    20    63 1   
    56    21    22 1   
    57    21    64 1   
    58    22    28 1   
    59    23    31 1   
    60    24    25 1   
    61    24    65 1   
    62    24    78 1   
    63    25    26 1   
    64    25    66 1   
    65    25    67 1   
    66    26    27 1   
    67    26    68 1   
    68    26    69 1   
    69    27    70 1   
    70    28    72 1   
    71    28    73 1   
    72    29    30 1   
    73    29    74 1   
    74    30    31 2   
    75    30    75 1   
    76    31    76 1   
    77    44    78 1   
    78    45    78 1   
    79    71    77 1   
@<TRIPOS>SUBSTRUCTURE
     1 T2W         1 TEMP              0 ****  ****    0 ROOT
