@<TRIPOS>MOLECULE
T2W
   78    79     1     0     0
SMALL
No Charge or Current Charge


@<TRIPOS>ATOM
      1 N1           0.0000     0.0000     0.0000 ns         1 T2W      -0.508900
      2 C6           0.0000     0.0000     0.0000 c3         1 T2W      -0.100100
      3 C5           0.0000     0.0000     0.0000 c3         1 T2W      -0.100100
      4 C4           0.0000     0.0000     0.0000 c6         1 T2W       0.198000
      5 C2           0.0000     0.0000     0.0000 c3         1 T2W      -0.118100
      6 O2           0.0000     0.0000     0.0000 o          1 T2W      -0.609100
      7 O4           0.0000     0.0000     0.0000 o          1 T2W      -0.537000
      8 C11      93133544879580559833085767525851571334806201515402458458732980656299801788815739331472768005871233864687157137277934067162363151365220139219540632998552535040.0000     0.0000     0.0000 c2         1 T2W      -0.204200
      9 C17      469194252300794589114319140317131042669909582753224480060849782784.0000     0.0000     0.0000 c6         1 T2W      -0.089400
     10 C18          0.0000     0.0000     0.0000 c6         1 T2W      -0.070900
     11 C19          0.0000     0.0000     0.0000 c          1 T2W       0.598300
     12 C21          0.0000     0.0000     0.0000 c2         1 T2W      -0.134200
     13 C22          0.0000     0.0000     0.0000 c3         1 T2W       0.221500
     14 C23          0.0000     0.0000     0.0000 c3         1 T2W      -0.108100
     15 C24          0.0000     0.0000     0.0000 c          1 T2W       0.641100
     16 C25          0.0000     0.0000     0.0000 c3         1 T2W       0.113300
     17 C26          0.0000     0.0000     0.0000 c3         1 T2W      -0.052900
     18 O1           0.0000     0.0000     0.0000 os         1 T2W      -0.461000
     19 N            0.0000     0.0000     0.0000 ns         1 T2W      -0.502900
     20 C            0.0000     0.0000     0.0000 c6         1 T2W      -0.094400
     21 O            0.0000     0.0000     0.0000 oh         1 T2W      -0.659000
     22 C1           0.0000     0.0000     0.0000 c6         1 T2W       0.185000
     23 C10          0.0000     0.0000     0.0000 ce         1 T2W      -0.079200
     24 C13          0.0000     0.0000     0.0000 c6         1 T2W      -0.058700
     25 C14          0.0000     0.0000     0.0000 c6         1 T2W      -0.070900
     26 C15          0.0000     0.0000     0.0000 c6         1 T2W      -0.089400
     27 C16          0.0000     0.0000     0.0000 c6         1 T2W       0.115700
     28 C3           0.0000     0.0000     0.0000 c6         1 T2W      -0.129400
     29 C7           0.0000     0.0000     0.0000 c6         1 T2W       0.212500
     30 C8           0.0000     0.0000     0.0000 c2         1 T2W      -0.206200
     31 C9           0.0000     0.0000     0.0000 ce         1 T2W      -0.170000
     32 O3           0.0000     0.0000     0.0000 os         1 T2W      -0.480100
     33 H1           0.0000     0.0000     0.0000 hn         1 T2W       0.326500
     34 H2           0.0000     0.0000     0.0000 hc         1 T2W       0.042700
     35 H3           0.0000     0.0000     0.0000 hc         1 T2W       0.042700
     36 H4           0.0000     0.0000     0.0000 hc         1 T2W       0.042700
     37 H5           0.0000     0.0000     0.0000 hc         1 T2W       0.042700
     38 H6           0.0000     0.0000     0.0000 hc         1 T2W       0.042700
     39 H7           0.0000     0.0000     0.0000 hc         1 T2W       0.042700
     40 H8           0.0000     0.0000     0.0000 hc         1 T2W       0.042033
     41 H9           0.0000     0.0000     0.0000 hc         1 T2W       0.042033
     42 H10          0.0000     0.0000     0.0000 hc         1 T2W       0.042033
     43 H11          0.0000     0.0000     0.0000 ha         1 T2W       0.167000
     44 H12          0.0000     0.0000     0.0000 hc         1 T2W       0.045200
     45 H13          0.0000     0.0000     0.0000 hc         1 T2W       0.045200
     46 H14          0.0000     0.0000     0.0000 hc         1 T2W       0.048950
     47 H15          0.0000     0.0000     0.0000 hc         1 T2W       0.048950
     48 H16          0.0000     0.0000     0.0000 hc         1 T2W       0.043200
     49 H17          0.0000     0.0000     0.0000 hc         1 T2W       0.043200
     50 H18          0.0000     0.0000     0.0000 ha         1 T2W       0.181000
     51 H19          0.0000     0.0000     0.0000 h1         1 T2W       0.106700
     52 H20          0.0000     0.0000     0.0000 hc         1 T2W       0.051700
     53 H21          0.0000     0.0000     0.0000 hc         1 T2W       0.051700
     54 H22          0.0000     0.0000     0.0000 hc         1 T2W       0.051700
     55 H23          0.0000     0.0000     0.0000 h1         1 T2W       0.040367
     56 H24          0.0000     0.0000     0.0000 h1         1 T2W       0.040367
     57 H25          0.0000     0.0000     0.0000 h1         1 T2W       0.040367
     58 H26          0.0000     0.0000     0.0000 hc         1 T2W       0.040033
     59 H27          0.0000     0.0000     0.0000 hc         1 T2W       0.040033
     60 H28          0.0000     0.0000     0.0000 hc         1 T2W       0.040033
     61 H29          0.0000     0.0000     0.0000 hn         1 T2W       0.309500
     62 H30          0.0000     0.0000     0.0000 hc         1 T2W       0.058200
     63 H31          0.0000     0.0000     0.0000 hc         1 T2W       0.058200
     64 H32          0.0000     0.0000     0.0000 ho         1 T2W       0.440000
     65 H33          0.0000     0.0000     0.0000 hc         1 T2W       0.048700
     66 H34          0.0000     0.0000     0.0000 hc         1 T2W       0.043200
     67 H35          0.0000     0.0000     0.0000 hc         1 T2W       0.043200
     68 H36          0.0000     0.0000     0.0000 hc         1 T2W       0.048950
     69 H37          0.0000     0.0000     0.0000 hc         1 T2W       0.048950
     70 H38          0.0000     0.0000     0.0000 h1         1 T2W       0.072700
     71 H39          0.0000     0.0000     0.0000 ha         1 T2W       0.176000
     72 H40          0.0000     0.0000     0.0000 hc         1 T2W       0.049700
     73 H41          0.0000     0.0000     0.0000 hc         1 T2W       0.049700
     74 H42          0.0000     0.0000     0.0000 h1         1 T2W       0.051700
     75 H43          0.0000     0.0000     0.0000 ha         1 T2W       0.177000
     76 H44          0.0000     0.0000     0.0000 ha         1 T2W       0.170000
     77 C20          0.0000     0.0000     0.0000 ce         1 T2W      -0.293200
     78 C12          0.0000     0.0000     0.0000 c3         1 T2W      -0.039200
@<TRIPOS>BOND
     1     1    15 1   
     2     1    16 1   
     3     1    33 1   
     4     2     4 1   
     5     2    34 1   
     6     2    35 1   
     7     2    36 1   
     8     3     4 1   
     9     3    37 1   
    10     3    38 1   
    11     3    39 1   
    12     4    18 1   
    13     4    28 1   
    14     5    22 1   
    15     5    40 1   
    16     5    41 1   
    17     5    42 1   
    18     6    11 2   
    19     7    15 2   
    20     8    23 2   
    21     8    43 1   
    22     8    78 1   
    23     9    10 1   
    24     9    27 1   
    25     9    46 1   
    26     9    47 1   
    27    10    24 1   
    28    10    48 1   
    29    10    49 1   
    30    11    19 1   
    31    11    77 1   
    32    12    13 1   
    33    12    50 1   
    34    12    77 2   
    35    13    14 1   
    36    13    32 1   
    37    13    51 1   
    38    14    52 1   
    39    14    53 1   
    40    14    54 1   
    41    15    32 1   
    42    16    55 1   
    43    16    56 1   
    44    16    57 1   
    45    17    23 1   
    46    17    58 1   
    47    17    59 1   
    48    17    60 1   
    49    18    29 1   
    50    19    27 1   
    51    19    61 1   
    52    20    22 1   
    53    20    29 1   
    54    20    62 1   
    55    20    63 1   
    56    21    22 1   
    57    21    64 1   
    58    22    28 1   
    59    23    31 1   
    60    24    25 1   
    61    24    65 1   
    62    24    78 1   
    63    25    26 1   
    64    25    66 1   
    65    25    67 1   
    66    26    27 1   
    67    26    68 1   
    68    26    69 1   
    69    27    70 1   
    70    28    72 1   
    71    28    73 1   
    72    29    30 1   
    73    29    74 1   
    74    30    31 2   
    75    30    75 1   
    76    31    76 1   
    77    44    78 1   
    78    45    78 1   
    79    71    77 1   
@<TRIPOS>SUBSTRUCTURE
     1 T2W         1 TEMP              0 ****  ****    0 ROOT
