@<TRIPOS>MOLECULE
T2X
   23    22     1     0     0
SMALL
abcg2


@<TRIPOS>ATOM
      1 CA         117.1690   125.4290   106.3300 c3         1 T2X       0.022300
      2 C30        116.5110   125.6180   104.9600 c3         1 T2X      -0.059400
      3 C31        117.4770   126.1060   103.8820 c3         1 T2X      -0.068400
      4 C32        116.9030   126.1710   102.4560 c3         1 T2X      -0.061700
      5 C33        115.6990   127.1110   102.3550 c3         1 T2X      -0.081100
      6 C34        116.5650   124.7850   101.8990 c3         1 T2X      -0.081100
      7 C          117.8560   126.7220   106.8340 c          1 T2X       0.685000
      8 O28        118.1250   124.3690   106.2950 oh         1 T2X      -0.719000
      9 O          119.1030   126.6390   107.0130 o          1 T2X      -0.728000
     10 OXT        117.1350   127.7260   107.0230 o          1 T2X      -0.728000
     11 HA         116.3890   125.1720   107.0550 h1         1 T2X       0.029700
     12 H302       115.6860   126.3230   105.0800 hc         1 T2X       0.024200
     13 H301       116.0700   124.6590   104.6720 hc         1 T2X       0.024200
     14 H311       118.3550   125.4550   103.8730 hc         1 T2X       0.052200
     15 H312       117.8320   127.1050   104.1550 hc         1 T2X       0.052200
     16 H321       117.6970   126.5880   101.8260 hc         1 T2X       0.025700
     17 H331       115.9350   128.0990   102.7590 hc         1 T2X       0.023700
     18 H333       115.3920   127.2360   101.3130 hc         1 T2X       0.023700
     19 H332       114.8410   126.7200   102.9070 hc         1 T2X       0.023700
     20 H341       117.4290   124.1180   101.9510 hc         1 T2X       0.023700
     21 H342       115.7480   124.3200   102.4540 hc         1 T2X       0.023700
     22 H343       116.2550   124.8550   100.8530 hc         1 T2X       0.023700
     23 H          118.9520   124.8280   106.5440 ho         1 T2X       0.471000
@<TRIPOS>BOND
     1     1     2 1   
     2     1     7 1   
     3     1     8 1   
     4     1    11 1   
     5     2     3 1   
     6     2    12 1   
     7     2    13 1   
     8     3     4 1   
     9     3    14 1   
    10     3    15 1   
    11     4     5 1   
    12     4     6 1   
    13     4    16 1   
    14     5    17 1   
    15     5    18 1   
    16     5    19 1   
    17     6    20 1   
    18     6    21 1   
    19     6    22 1   
    20     7     9 1   
    21     7    10 1   
    22     8    23 1   
@<TRIPOS>SUBSTRUCTURE
     1 T2X         1 TEMP              0 ****  ****    0 ROOT
