@<TRIPOS>MOLECULE
T2X
   23    22     1     0     0
SMALL
No Charge or Current Charge


@<TRIPOS>ATOM
      1 CA         117.2140   125.4230   106.3750 c3         1 T2X       0.022300
      2 C30        116.5690   125.5210   104.9650 c3         1 T2X      -0.059400
      3 C31        117.5230   126.0220   103.8440 c3         1 T2X      -0.068400
      4 C32        116.8970   126.1360   102.4250 c3         1 T2X      -0.061700
      5 C33        115.7650   127.1870   102.3480 c3         1 T2X      -0.081100
      6 C34        116.4460   124.7720   101.8530 c3         1 T2X      -0.081100
      7 C          117.7400   126.8150   106.8950 c          1 T2X       0.685000
      8 O28        118.2580   124.4140   106.3710 oh         1 T2X      -0.719000
      9 O          118.9510   126.9510   107.0180 o          1 T2X      -0.728000
     10 OXT        116.9280   127.6560   107.2530 o          1 T2X      -0.728000
     11 HA         116.4240   125.1140   107.0730 h1         1 T2X       0.029700
     12 H302       115.7060   126.1940   105.0320 hc         1 T2X       0.024200
     13 H301       116.1720   124.5350   104.6960 hc         1 T2X       0.024200
     14 H311       118.3890   125.3500   103.7860 hc         1 T2X       0.052200
     15 H312       117.9200   127.0050   104.1250 hc         1 T2X       0.052200
     16 H321       117.6990   126.4970   101.7670 hc         1 T2X       0.025700
     17 H331       116.1020   128.1510   102.7470 hc         1 T2X       0.023700
     18 H333       115.4560   127.3420   101.3070 hc         1 T2X       0.023700
     19 H332       114.8840   126.8650   102.9160 hc         1 T2X       0.023700
     20 H341       117.2610   124.0400   101.9040 hc         1 T2X       0.023700
     21 H342       115.5870   124.3730   102.4060 hc         1 T2X       0.023700
     22 H343       116.1510   124.8750   100.8020 hc         1 T2X       0.023700
     23 H          119.0830   124.9170   106.5830 ho         1 T2X       0.471000
@<TRIPOS>BOND
     1     1     2 1   
     2     1     7 1   
     3     1     8 1   
     4     1    11 1   
     5     2     3 1   
     6     2    12 1   
     7     2    13 1   
     8     3     4 1   
     9     3    14 1   
    10     3    15 1   
    11     4     5 1   
    12     4     6 1   
    13     4    16 1   
    14     5    17 1   
    15     5    18 1   
    16     5    19 1   
    17     6    20 1   
    18     6    21 1   
    19     6    22 1   
    20     7     9 1   
    21     7    10 1   
    22     8    23 1   
@<TRIPOS>SUBSTRUCTURE
     1 T2X         1 TEMP              0 ****  ****    0 ROOT
