@<TRIPOS>MOLECULE
T2Y
   25    26     1     0     0
SMALL
abcg2


@<TRIPOS>ATOM
      1 C4           0.4640    -1.8680    -0.4190 ca         1 T2Y      -0.100000
      2 C5           1.8400    -1.8520    -0.1530 ca         1 T2Y      -0.099000
      3 C6           2.4180    -0.6230     0.0340 ca         1 T2Y       0.058100
      4 C7           3.8140     1.0910     0.2300 c5         1 T2Y       0.372600
      5 C8           1.6780     0.5490    -0.0400 ca         1 T2Y       0.049100
      6 N           -2.5210    -0.1570     0.2840 ns         1 T2Y      -0.510900
      7 C           -4.3320     1.0130     1.3620 c3         1 T2Y      -0.180100
      8 O           -4.1850     0.6690    -1.0000 o          1 T2Y      -0.607100
      9 C1          -3.6790     0.5010     0.1020 c          1 T2Y       0.601100
     10 C3          -0.2830    -0.7030    -0.4960 ca         1 T2Y      -0.113300
     11 C9           0.3330     0.5460    -0.3010 ca         1 T2Y      -0.083000
     12 O1           3.7060    -0.3230     0.3290 os         1 T2Y      -0.343100
     13 O2           2.4900     1.6070     0.2040 os         1 T2Y      -0.343100
     14 H5          -0.0260    -2.8220    -0.5700 ha         1 T2Y       0.120000
     15 H6           2.4110    -2.7680    -0.0890 ha         1 T2Y       0.136000
     16 H7           4.3460     1.4820     1.0970 h2         1 T2Y       0.065700
     17 H8           4.3360     1.3610    -0.6950 h2         1 T2Y       0.065700
     18 H2          -2.1970    -0.3120     1.2250 hn         1 T2Y       0.314500
     19 H           -5.2220     0.4180     1.5740 hc         1 T2Y       0.060367
     20 H1          -3.6840     0.9740     2.2360 hc         1 T2Y       0.060367
     21 H10         -4.6570     2.0410     1.2140 hc         1 T2Y       0.060367
     22 H4          -2.0600    -1.8020    -0.9410 h1         1 T2Y       0.062700
     23 H3          -1.9890    -0.2270    -1.7090 h1         1 T2Y       0.062700
     24 H9          -0.2360     1.4660    -0.3530 ha         1 T2Y       0.140000
     25 C2          -1.7580    -0.7610    -0.7870 c3         1 T2Y       0.149300
@<TRIPOS>BOND
     1     1     2 ar  
     2     1    10 ar  
     3     1    14 1   
     4     2     3 ar  
     5     2    15 1   
     6     3     5 ar  
     7     3    12 1   
     8     4    12 1   
     9     4    13 1   
    10     4    16 1   
    11     4    17 1   
    12     5    11 ar  
    13     5    13 1   
    14     6     9 1   
    15     6    18 1   
    16     6    25 1   
    17     7     9 1   
    18     7    19 1   
    19     7    20 1   
    20     7    21 1   
    21     8     9 2   
    22    10    11 ar  
    23    10    25 1   
    24    11    24 1   
    25    22    25 1   
    26    23    25 1   
@<TRIPOS>SUBSTRUCTURE
     1 T2Y         1 TEMP              0 ****  ****    0 ROOT
