@<TRIPOS>MOLECULE
T2Y
   25    26     1     0     0
SMALL
No Charge or Current Charge


@<TRIPOS>ATOM
      1 C4           0.2410    -1.6480    -0.1940 ca         1 T2Y      -0.100000
      2 C5           1.5940    -1.7930     0.1810 ca         1 T2Y      -0.099000
      3 C6           2.4130    -0.6590     0.1450 ca         1 T2Y       0.058100
      4 C7           4.0860     0.7860     0.2090 c5         1 T2Y       0.372600
      5 C8           1.9310     0.5620    -0.2350 ca         1 T2Y       0.049100
      6 N           -2.5520     0.0770     0.1730 ns         1 T2Y      -0.510900
      7 C           -4.5590     0.5920     1.4660 c3         1 T2Y      -0.180100
      8 O           -4.5450     0.2130    -0.9180 o          1 T2Y      -0.607100
      9 C1          -3.9100     0.2800     0.1240 c          1 T2Y       0.601100
     10 C3          -0.2640    -0.3840    -0.5920 ca         1 T2Y      -0.113300
     11 C9           0.5930     0.7410    -0.6110 ca         1 T2Y      -0.083000
     12 O1           3.7270    -0.6160     0.4800 os         1 T2Y      -0.343100
     13 O2           2.8800     1.5310    -0.1890 os         1 T2Y      -0.343100
     14 H5          -0.4170    -2.5150    -0.1730 ha         1 T2Y       0.120000
     15 H6           1.9910    -2.7570     0.4910 ha         1 T2Y       0.136000
     16 H7           4.5160     1.2370     1.1110 h2         1 T2Y       0.065700
     17 H8           4.8140     0.8180    -0.6110 h2         1 T2Y       0.065700
     18 H2          -2.1060     0.1500     1.0790 hn         1 T2Y       0.314500
     19 H           -4.3160    -0.2080     2.1740 hc         1 T2Y       0.060367
     20 H1          -4.0580     1.4580     1.9120 hc         1 T2Y       0.060367
     21 H10         -5.6410     0.7470     1.3850 hc         1 T2Y       0.060367
     22 H4          -2.0840    -1.1680    -1.4450 h1         1 T2Y       0.062700
     23 H3          -1.8300     0.5670    -1.7310 h1         1 T2Y       0.062700
     24 H9           0.2310     1.7230    -0.9050 ha         1 T2Y       0.140000
     25 C2          -1.7240    -0.2350    -0.9890 c3         1 T2Y       0.149300
@<TRIPOS>BOND
     1     1     2 ar  
     2     1    10 ar  
     3     1    14 1   
     4     2     3 ar  
     5     2    15 1   
     6     3     5 ar  
     7     3    12 1   
     8     4    12 1   
     9     4    13 1   
    10     4    16 1   
    11     4    17 1   
    12     5    11 ar  
    13     5    13 1   
    14     6     9 1   
    15     6    18 1   
    16     6    25 1   
    17     7     9 1   
    18     7    19 1   
    19     7    20 1   
    20     7    21 1   
    21     8     9 2   
    22    10    11 ar  
    23    10    25 1   
    24    11    24 1   
    25    22    25 1   
    26    23    25 1   
@<TRIPOS>SUBSTRUCTURE
     1 T2Y         1 TEMP              0 ****  ****    0 ROOT
