@<TRIPOS>MOLECULE
T2Z
   87    88     1     0     0
SMALL
No Charge or Current Charge


@<TRIPOS>ATOM
      1 C1         -21.1750    39.8440   -31.2500 c3         1 T2Z      -0.111400
      2 C2         -20.3970    40.0670   -32.5750 c3         1 T2Z       0.178300
      3 C3         -19.3580    41.2330   -32.5560 c3         1 T2Z      -0.041700
      4 C4         -18.2480    41.0610   -31.4850 c3         1 T2Z      -0.084100
      5 C5         -18.7470    41.4450   -33.9420 cx         1 T2Z       0.098300
      6 C6         -18.0730    42.7470   -34.2840 cx         1 T2Z       0.082300
      7 C7         -16.9120    42.7880   -35.2770 c3         1 T2Z      -0.097400
      8 C8         -15.5180    42.5120   -34.6490 c3         1 T2Z       0.223200
      9 O2         -13.1890    37.0600   -30.3490 os         1 T2Z      -0.454100
     10 O3         -11.6960    33.7220   -32.0410 oh         1 T2Z      -0.647000
     11 C          -22.0010    41.0580   -30.7730 c3         1 T2Z      -0.087100
     12 O          -19.3780    42.4140   -34.8130 op         1 T2Z      -0.443000
     13 C10        -15.4750    41.1590   -33.9590 c2         1 T2Z      -0.241200
     14 C11        -14.8250    40.8300   -32.8190 ce         1 T2Z      -0.177000
     15 C12        -14.8890    39.4820   -32.2350 ce         1 T2Z      -0.161000
     16 C13        -14.2930    39.0920   -31.0830 c2         1 T2Z      -0.129400
     17 C14        -13.4360    40.0070   -30.2130 c3         1 T2Z      -0.055900
     18 C15        -14.4800    37.6780   -30.5240 c3         1 T2Z       0.218500
     19 C16        -15.2170    37.6160   -29.1550 c3         1 T2Z      -0.029500
     20 C17        -15.2310    36.1890   -28.6380 c2         1 T2Z      -0.175200
     21 C18        -14.4940    35.7420   -27.6090 c2         1 T2Z      -0.242200
     22 C19        -14.3180    34.2840   -27.2300 c3         1 T2Z       0.189500
     23 C20        -12.8120    33.8470   -27.1020 c3         1 T2Z       0.199000
     24 C21        -11.9130    34.3650   -28.2720 c3         1 T2Z      -0.070400
     25 C22        -12.3190    33.9160   -29.7050 c3         1 T2Z      -0.113400
     26 C23        -11.3290    34.3620   -30.8170 c3         1 T2Z       0.183300
     27 C24        -11.2210    35.8890   -31.0570 c3         1 T2Z      -0.131400
     28 C25        -12.5530    36.5350   -31.4430 c          1 T2Z       0.601100
     29 C26        -12.7080    32.3080   -26.9480 c3         1 T2Z      -0.123100
     30 C28        -16.7890    33.8950   -24.4360 c3         1 T2Z      -0.158100
     31 C29        -16.6510    38.1860   -29.2290 c3         1 T2Z      -0.086100
     32 C9         -14.4050    42.5910   -35.7150 c3         1 T2Z      -0.078100
     33 O1         -12.9860    36.5790   -32.5870 o          1 T2Z      -0.467000
     34 O4         -12.2970    34.4090   -25.8890 oh         1 T2Z      -0.658000
     35 O5         -14.9430    34.1060   -25.9390 os         1 T2Z      -0.467100
     36 O6         -17.0620    34.0250   -26.8390 o          1 T2Z      -0.482000
     37 O7         -15.2650    43.5260   -33.6810 oh         1 T2Z      -0.657000
     38 O8         -19.7470    38.8370   -32.9250 oh         1 T2Z      -0.662000
     39 H1         -21.8660    39.0030   -31.3900 hc         1 T2Z       0.044200
     40 H2         -20.4850    39.5420   -30.4530 hc         1 T2Z       0.044200
     41 H3         -21.1400    40.3100   -33.3480 h1         1 T2Z       0.039700
     42 H4         -19.9030    42.1490   -32.3010 hc         1 T2Z       0.056700
     43 H5         -18.6720    41.0190   -30.4760 hc         1 T2Z       0.039367
     44 H6         -17.6760    40.1420   -31.6580 hc         1 T2Z       0.039367
     45 H7         -17.5480    41.9050   -31.5120 hc         1 T2Z       0.039367
     46 H8         -18.3920    40.5390   -34.4340 h1         1 T2Z       0.097700
     47 H9         -18.0700    43.5420   -33.5380 h1         1 T2Z       0.077700
     48 H10        -16.8930    43.7760   -35.7530 hc         1 T2Z       0.066200
     49 H11        -17.0900    42.0670   -36.0850 hc         1 T2Z       0.066200
     50 H12        -11.5920    32.7550   -31.9040 ho         1 T2Z       0.443000
     51 H13        -22.6090    40.7850   -29.9030 hc         1 T2Z       0.034700
     52 H14        -21.3500    41.8890   -30.4780 hc         1 T2Z       0.034700
     53 H15        -22.6750    41.4060   -31.5660 hc         1 T2Z       0.034700
     54 H16        -16.0410    40.3910   -34.4880 ha         1 T2Z       0.180000
     55 H17        -14.2330    41.5760   -32.2870 ha         1 T2Z       0.180000
     56 H18        -15.4940    38.7600   -32.7860 ha         1 T2Z       0.180000
     57 H19        -12.8060    39.4530   -29.5070 hc         1 T2Z       0.044367
     58 H20        -12.7580    40.6180   -30.8200 hc         1 T2Z       0.044367
     59 H21        -14.0660    40.6870   -29.6260 hc         1 T2Z       0.044367
     60 H22        -15.0820    37.0870   -31.2290 h1         1 T2Z       0.068700
     61 H23        -14.6600    38.2390   -28.4460 hc         1 T2Z       0.063700
     62 H24        -15.8200    35.4930   -29.2400 ha         1 T2Z       0.175000
     63 H25        -13.8750    36.4300   -27.0320 ha         1 T2Z       0.189000
     64 H26        -14.7920    33.6430   -27.9870 h1         1 T2Z       0.067700
     65 H27        -10.8820    34.0390   -28.0850 hc         1 T2Z       0.062200
     66 H28        -11.8860    35.4600   -28.2360 hc         1 T2Z       0.062200
     67 H29        -13.3240    34.2830   -29.9400 hc         1 T2Z       0.049200
     68 H30        -12.3770    32.8210   -29.7240 hc         1 T2Z       0.049200
     69 H31        -10.3290    34.0110   -30.5240 h1         1 T2Z       0.031700
     70 H32        -10.4980    36.0640   -31.8620 hc         1 T2Z       0.079200
     71 H33        -10.8590    36.3430   -30.1290 hc         1 T2Z       0.079200
     72 H34        -13.2240    31.9670   -26.0420 hc         1 T2Z       0.044700
     73 H35        -13.1630    31.7930   -27.8010 hc         1 T2Z       0.044700
     74 H36        -11.6600    31.9920   -26.8770 hc         1 T2Z       0.044700
     75 H37        -17.8780    33.8110   -24.3590 hc         1 T2Z       0.069033
     76 H38        -16.2790    33.0470   -23.9660 hc         1 T2Z       0.069033
     77 H39        -16.4030    34.7450   -23.8610 hc         1 T2Z       0.069033
     78 H40        -17.1470    38.1040   -28.2550 hc         1 T2Z       0.041367
     79 H41        -16.6340    39.2460   -29.5100 hc         1 T2Z       0.041367
     80 H42        -17.2520    37.6430   -29.9680 hc         1 T2Z       0.041367
     81 H43        -13.4210    42.4260   -35.2600 hc         1 T2Z       0.047367
     82 H44        -14.5540    41.8270   -36.4870 hc         1 T2Z       0.047367
     83 H45        -14.3960    43.5740   -36.2020 hc         1 T2Z       0.047367
     84 H46        -13.0850    34.4690   -25.3020 ho         1 T2Z       0.455000
     85 H47        -15.6500    43.1970   -32.8440 ho         1 T2Z       0.443000
     86 H48        -20.4450    38.1490   -32.9740 ho         1 T2Z       0.442000
     87 C27        -16.3100    34.0200   -25.8740 c          1 T2Z       0.600100
@<TRIPOS>BOND
     1     1     2 1   
     2     1    11 1   
     3     1    39 1   
     4     1    40 1   
     5     2     3 1   
     6     2    38 1   
     7     2    41 1   
     8     3     4 1   
     9     3     5 1   
    10     3    42 1   
    11     4    43 1   
    12     4    44 1   
    13     4    45 1   
    14     5     6 1   
    15     5    12 1   
    16     5    46 1   
    17     6     7 1   
    18     6    12 1   
    19     6    47 1   
    20     7     8 1   
    21     7    48 1   
    22     7    49 1   
    23     8    13 1   
    24     8    32 1   
    25     8    37 1   
    26     9    18 1   
    27     9    28 1   
    28    10    26 1   
    29    10    50 1   
    30    11    51 1   
    31    11    52 1   
    32    11    53 1   
    33    13    14 2   
    34    13    54 1   
    35    14    15 1   
    36    14    55 1   
    37    15    16 2   
    38    15    56 1   
    39    16    17 1   
    40    16    18 1   
    41    17    57 1   
    42    17    58 1   
    43    17    59 1   
    44    18    19 1   
    45    18    60 1   
    46    19    20 1   
    47    19    31 1   
    48    19    61 1   
    49    20    21 2   
    50    20    62 1   
    51    21    22 1   
    52    21    63 1   
    53    22    23 1   
    54    22    35 1   
    55    22    64 1   
    56    23    24 1   
    57    23    29 1   
    58    23    34 1   
    59    24    25 1   
    60    24    65 1   
    61    24    66 1   
    62    25    26 1   
    63    25    67 1   
    64    25    68 1   
    65    26    27 1   
    66    26    69 1   
    67    27    28 1   
    68    27    70 1   
    69    27    71 1   
    70    28    33 2   
    71    29    72 1   
    72    29    73 1   
    73    29    74 1   
    74    30    75 1   
    75    30    76 1   
    76    30    77 1   
    77    30    87 1   
    78    31    78 1   
    79    31    79 1   
    80    31    80 1   
    81    32    81 1   
    82    32    82 1   
    83    32    83 1   
    84    34    84 1   
    85    35    87 1   
    86    36    87 2   
    87    37    85 1   
    88    38    86 1   
@<TRIPOS>SUBSTRUCTURE
     1 T2Z         1 TEMP              0 ****  ****    0 ROOT
