@<TRIPOS>MOLECULE
T2Z
   87    88     1     0     0
SMALL
abcg2


@<TRIPOS>ATOM
      1 C1         -21.6540    39.9440   -31.9010 c3         1 T2Z      -0.111400
      2 C2         -20.8030    40.3180   -33.1130 c3         1 T2Z       0.178300
      3 C3         -19.4540    40.9500   -32.7570 c3         1 T2Z      -0.041700
      4 C4         -18.5460    40.0370   -31.9380 c3         1 T2Z      -0.084100
      5 C5         -18.7300    41.3970   -34.0040 cx         1 T2Z       0.098300
      6 C6         -17.9940    42.6560   -34.0630 cx         1 T2Z       0.082300
      7 C7         -16.8240    42.8640   -34.9850 c3         1 T2Z      -0.097400
      8 C8         -15.4510    42.6440   -34.3210 c3         1 T2Z       0.223200
      9 O2         -13.1540    37.0010   -30.4180 os         1 T2Z      -0.454100
     10 O3         -12.2120    33.5580   -32.0170 oh         1 T2Z      -0.647000
     11 C          -21.9890    41.1210   -30.9960 c3         1 T2Z      -0.087100
     12 O          -19.2650    42.5220   -34.6890 op         1 T2Z      -0.443000
     13 C10        -15.3770    41.2410   -33.7720 c2         1 T2Z      -0.241200
     14 C11        -14.8000    40.8970   -32.6170 ce         1 T2Z      -0.177000
     15 C12        -14.8020    39.5380   -32.1060 ce         1 T2Z      -0.161000
     16 C13        -14.1780    39.1140   -30.9980 c2         1 T2Z      -0.129400
     17 C14        -13.3050    39.9830   -30.1410 c3         1 T2Z      -0.055900
     18 C15        -14.4050    37.7060   -30.5170 c3         1 T2Z       0.218500
     19 C16        -15.0360    37.6640   -29.1130 c3         1 T2Z      -0.029500
     20 C17        -15.0090    36.2630   -28.5900 c2         1 T2Z      -0.175200
     21 C18        -14.3270    35.8860   -27.5160 c2         1 T2Z      -0.242200
     22 C19        -14.1680    34.4600   -27.1060 c3         1 T2Z       0.189500
     23 C20        -12.6830    34.0280   -27.0500 c3         1 T2Z       0.199000
     24 C21        -11.9580    34.4210   -28.3430 c3         1 T2Z      -0.070400
     25 C22        -12.5420    33.8710   -29.6370 c3         1 T2Z      -0.113400
     26 C23        -11.6580    34.1360   -30.8560 c3         1 T2Z       0.183300
     27 C24        -11.4060    35.6170   -31.1640 c3         1 T2Z      -0.131400
     28 C25        -12.6600    36.3880   -31.4910 c          1 T2Z       0.601100
     29 C26        -12.5820    32.5250   -26.7910 c3         1 T2Z      -0.123100
     30 C28        -16.2970    33.9360   -24.1260 c3         1 T2Z      -0.158100
     31 C29        -16.4600    38.2120   -29.1670 c3         1 T2Z      -0.086100
     32 C9         -14.3600    42.8300   -35.3740 c3         1 T2Z      -0.078100
     33 O1         -13.1640    36.4380   -32.5840 o          1 T2Z      -0.467000
     34 O4         -12.0110    34.7490   -26.0330 oh         1 T2Z      -0.658000
     35 O5         -14.6740    34.2610   -25.7730 os         1 T2Z      -0.467100
     36 O6         -16.7900    34.0760   -26.4750 o          1 T2Z      -0.482000
     37 O7         -15.2040    43.6160   -33.3240 oh         1 T2Z      -0.657000
     38 O8         -20.5450    39.1880   -33.9240 oh         1 T2Z      -0.662000
     39 H1         -22.5870    39.5070   -32.2740 hc         1 T2Z       0.044200
     40 H2         -21.1610    39.1560   -31.3250 hc         1 T2Z       0.044200
     41 H3         -21.3680    41.0720   -33.6830 h1         1 T2Z       0.039700
     42 H4         -19.6680    41.8450   -32.1630 hc         1 T2Z       0.056700
     43 H5         -19.0140    39.7430   -30.9980 hc         1 T2Z       0.039367
     44 H6         -18.2840    39.1270   -32.4790 hc         1 T2Z       0.039367
     45 H7         -17.6140    40.5470   -31.6910 hc         1 T2Z       0.039367
     46 H8         -18.3920    40.5950   -34.6610 h1         1 T2Z       0.097700
     47 H9         -18.0160    43.2850   -33.1700 h1         1 T2Z       0.077700
     48 H10        -16.8510    43.8820   -35.3880 hc         1 T2Z       0.066200
     49 H11        -16.9130    42.1840   -35.8370 hc         1 T2Z       0.066200
     50 H12        -12.3410    32.6180   -31.8540 ho         1 T2Z       0.443000
     51 H13        -22.7230    40.8370   -30.2420 hc         1 T2Z       0.034700
     52 H14        -21.1110    41.4930   -30.4680 hc         1 T2Z       0.034700
     53 H15        -22.4080    41.9530   -31.5660 hc         1 T2Z       0.034700
     54 H16        -15.8230    40.4680   -34.3920 ha         1 T2Z       0.180000
     55 H17        -14.3370    41.6670   -32.0090 ha         1 T2Z       0.180000
     56 H18        -15.3990    38.8220   -32.6660 ha         1 T2Z       0.180000
     57 H19        -12.4760    39.4150   -29.7170 hc         1 T2Z       0.044367
     58 H20        -12.8770    40.8160   -30.6950 hc         1 T2Z       0.044367
     59 H21        -13.8640    40.4010   -29.2990 hc         1 T2Z       0.044367
     60 H22        -15.0640    37.1760   -31.2110 h1         1 T2Z       0.068700
     61 H23        -14.4440    38.2900   -28.4380 hc         1 T2Z       0.063700
     62 H24        -15.5540    35.5200   -29.1710 ha         1 T2Z       0.175000
     63 H25        -13.7780    36.6260   -26.9380 ha         1 T2Z       0.189000
     64 H26        -14.7040    33.8070   -27.8010 h1         1 T2Z       0.067700
     65 H27        -10.9210    34.0820   -28.2450 hc         1 T2Z       0.062200
     66 H28        -11.9240    35.5110   -28.3930 hc         1 T2Z       0.062200
     67 H29        -13.5410    34.2740   -29.8200 hc         1 T2Z       0.049200
     68 H30        -12.6600    32.7850   -29.5550 hc         1 T2Z       0.049200
     69 H31        -10.6670    33.7050   -30.6480 h1         1 T2Z       0.031700
     70 H32        -10.7400    35.6750   -32.0270 hc         1 T2Z       0.079200
     71 H33        -10.8850    36.0720   -30.3220 hc         1 T2Z       0.079200
     72 H34        -12.9960    32.2560   -25.8170 hc         1 T2Z       0.044700
     73 H35        -13.1210    31.9480   -27.5420 hc         1 T2Z       0.044700
     74 H36        -11.5380    32.2080   -26.8090 hc         1 T2Z       0.044700
     75 H37        -17.3620    33.7780   -23.9830 hc         1 T2Z       0.069033
     76 H38        -15.7490    33.0920   -23.7050 hc         1 T2Z       0.069033
     77 H39        -15.9920    34.8250   -23.5730 hc         1 T2Z       0.069033
     78 H40        -16.9100    38.2020   -28.1750 hc         1 T2Z       0.041367
     79 H41        -16.4830    39.2390   -29.5330 hc         1 T2Z       0.041367
     80 H42        -17.0890    37.6100   -29.8270 hc         1 T2Z       0.041367
     81 H43        -13.3720    42.7110   -34.9280 hc         1 T2Z       0.047367
     82 H44        -14.4630    42.0930   -36.1700 hc         1 T2Z       0.047367
     83 H45        -14.4210    43.8230   -35.8250 hc         1 T2Z       0.047367
     84 H46        -12.3450    34.4620   -25.1760 ho         1 T2Z       0.455000
     85 H47        -15.7930    43.4620   -32.5780 ho         1 T2Z       0.443000
     86 H48        -21.3890    38.8260   -34.2140 ho         1 T2Z       0.442000
     87 C27        -15.9810    34.0950   -25.5840 c          1 T2Z       0.600100
@<TRIPOS>BOND
     1     1     2 1   
     2     1    11 1   
     3     1    39 1   
     4     1    40 1   
     5     2     3 1   
     6     2    38 1   
     7     2    41 1   
     8     3     4 1   
     9     3     5 1   
    10     3    42 1   
    11     4    43 1   
    12     4    44 1   
    13     4    45 1   
    14     5     6 1   
    15     5    12 1   
    16     5    46 1   
    17     6     7 1   
    18     6    12 1   
    19     6    47 1   
    20     7     8 1   
    21     7    48 1   
    22     7    49 1   
    23     8    13 1   
    24     8    32 1   
    25     8    37 1   
    26     9    18 1   
    27     9    28 1   
    28    10    26 1   
    29    10    50 1   
    30    11    51 1   
    31    11    52 1   
    32    11    53 1   
    33    13    14 2   
    34    13    54 1   
    35    14    15 1   
    36    14    55 1   
    37    15    16 2   
    38    15    56 1   
    39    16    17 1   
    40    16    18 1   
    41    17    57 1   
    42    17    58 1   
    43    17    59 1   
    44    18    19 1   
    45    18    60 1   
    46    19    20 1   
    47    19    31 1   
    48    19    61 1   
    49    20    21 2   
    50    20    62 1   
    51    21    22 1   
    52    21    63 1   
    53    22    23 1   
    54    22    35 1   
    55    22    64 1   
    56    23    24 1   
    57    23    29 1   
    58    23    34 1   
    59    24    25 1   
    60    24    65 1   
    61    24    66 1   
    62    25    26 1   
    63    25    67 1   
    64    25    68 1   
    65    26    27 1   
    66    26    69 1   
    67    27    28 1   
    68    27    70 1   
    69    27    71 1   
    70    28    33 2   
    71    29    72 1   
    72    29    73 1   
    73    29    74 1   
    74    30    75 1   
    75    30    76 1   
    76    30    77 1   
    77    30    87 1   
    78    31    78 1   
    79    31    79 1   
    80    31    80 1   
    81    32    81 1   
    82    32    82 1   
    83    32    83 1   
    84    34    84 1   
    85    35    87 1   
    86    36    87 2   
    87    37    85 1   
    88    38    86 1   
@<TRIPOS>SUBSTRUCTURE
     1 T2Z         1 TEMP              0 ****  ****    0 ROOT
