@<TRIPOS>MOLECULE
T30
   48    51     1     0     0
SMALL
No Charge or Current Charge


@<TRIPOS>ATOM
      1 F21          6.2720     3.4180    -0.5020 f          1 T30      -0.177000
      2 C18          5.6160     2.2400    -0.4260 ca         1 T30       0.172000
      3 C14          4.8500     1.7950    -1.5120 ca         1 T30      -0.154000
      4 C9           4.1670     0.5690    -1.4330 ca         1 T30      -0.076500
      5 C13          5.7080     1.4630     0.7380 ca         1 T30      -0.154000
      6 C8           5.0250     0.2360     0.8200 ca         1 T30      -0.076500
      7 C3           4.2390    -0.2190    -0.2630 ca         1 T30      -0.067300
      8 C1           3.4920    -1.5320    -0.2060 cx         1 T30      -0.115000
      9 C4           4.2110    -2.7640    -0.7350 cx         1 T30      -0.099900
     10 C5           3.8750    -2.6720     0.7280 cx         1 T30      -0.099900
     11 C2           2.0500    -1.3770    -0.5590 cc         1 T30       0.423800
     12 N6           1.0080    -0.8570     0.2090 na         1 T30      -0.349000
     13 C11          1.0740    -0.1030     1.4900 c3         1 T30       0.094300
     14 C16          1.8350    -0.8220     2.6200 c3         1 T30      -0.106600
     15 C17          1.5280     1.3580     1.2910 c3         1 T30      -0.106600
     16 N7           1.5430    -1.7690    -1.7220 nd         1 T30      -0.367000
     17 N12          0.1970    -1.5450    -1.7280 nd         1 T30      -0.345000
     18 C10         -0.1310    -1.0450    -0.5550 cc         1 T30       0.423000
     19 C15         -1.5080    -0.7140    -0.1680 ca         1 T30      -0.141500
     20 C19         -2.3600    -0.0690    -1.0870 ca         1 T30      -0.055000
     21 C22         -3.6980     0.2100    -0.7540 ca         1 T30      -0.142000
     22 C20         -2.0390    -1.1390     1.0680 ca         1 T30      -0.055000
     23 C23         -3.3760    -0.8610     1.4000 ca         1 T30      -0.142000
     24 C24         -4.2120    -0.1820     0.5020 ca         1 T30       0.153100
     25 O25         -5.5140     0.0530     0.9030 os         1 T30      -0.408100
     26 C26         -6.4960     0.7350     0.0970 c3         1 T30       0.525000
     27 F29         -6.7420     0.0840    -1.0640 f          1 T30      -0.104000
     28 F27         -7.6730     0.8220     0.7540 f          1 T30      -0.104000
     29 F28         -6.1190     1.9990    -0.2050 f          1 T30      -0.104000
     30 H14          4.7880     2.3990    -2.4140 ha         1 T30       0.134500
     31 H9           3.5820     0.2310    -2.2850 ha         1 T30       0.125000
     32 H13          6.3060     1.8130     1.5750 ha         1 T30       0.134500
     33 H8           5.1090    -0.3470     1.7320 ha         1 T30       0.125000
     34 H4           3.6540    -3.4830    -1.3310 hc         1 T30       0.083200
     35 H4A          5.2550    -2.6590    -1.0180 hc         1 T30       0.083200
     36 H5           4.7060    -2.5450     1.4160 hc         1 T30       0.083200
     37 H5A          3.0790    -3.3130     1.1010 hc         1 T30       0.083200
     38 H11          0.0490    -0.0150     1.8620 h1         1 T30       0.063700
     39 H16          2.9160    -0.7880     2.4640 hc         1 T30       0.050867
     40 H16A         1.6280    -0.3390     3.5820 hc         1 T30       0.050867
     41 H16B         1.5200    -1.8700     2.6950 hc         1 T30       0.050867
     42 H17          0.9040     1.8530     0.5380 hc         1 T30       0.050867
     43 H17A         1.4330     1.9190     2.2290 hc         1 T30       0.050867
     44 H17B         2.5690     1.4220     0.9660 hc         1 T30       0.050867
     45 H19         -1.9800     0.2330    -2.0620 ha         1 T30       0.130500
     46 H22         -4.3120     0.7230    -1.4860 ha         1 T30       0.138500
     47 H20         -1.4220    -1.6970     1.7690 ha         1 T30       0.130500
     48 H23         -3.7720    -1.1850     2.3600 ha         1 T30       0.138500
@<TRIPOS>BOND
     1     1     2 1   
     2     2     3 ar  
     3     2     5 ar  
     4     3     4 ar  
     5     3    30 1   
     6     4     7 ar  
     7     4    31 1   
     8     5     6 ar  
     9     5    32 1   
    10     6     7 ar  
    11     6    33 1   
    12     7     8 1   
    13     8     9 1   
    14     8    10 1   
    15     8    11 1   
    16     9    10 1   
    17     9    34 1   
    18     9    35 1   
    19    10    36 1   
    20    10    37 1   
    21    11    12 1   
    22    11    16 2   
    23    12    13 1   
    24    12    18 1   
    25    13    14 1   
    26    13    15 1   
    27    13    38 1   
    28    14    39 1   
    29    14    40 1   
    30    14    41 1   
    31    15    42 1   
    32    15    43 1   
    33    15    44 1   
    34    16    17 1   
    35    17    18 2   
    36    18    19 1   
    37    19    20 ar  
    38    19    22 ar  
    39    20    21 ar  
    40    20    45 1   
    41    21    24 ar  
    42    21    46 1   
    43    22    23 ar  
    44    22    47 1   
    45    23    24 ar  
    46    23    48 1   
    47    24    25 1   
    48    25    26 1   
    49    26    27 1   
    50    26    28 1   
    51    26    29 1   
@<TRIPOS>SUBSTRUCTURE
     1 T30         1 TEMP              0 ****  ****    0 ROOT
