@<TRIPOS>MOLECULE
T30
   48    51     1     0     0
SMALL
abcg2


@<TRIPOS>ATOM
      1 F21          5.8750     3.5130    -0.5520 f          1 T30      -0.177000
      2 C18          5.3190     2.2950    -0.4500 ca         1 T30       0.172000
      3 C14          4.5270     1.8300    -1.4830 ca         1 T30      -0.154000
      4 C9           3.9540     0.5750    -1.3640 ca         1 T30      -0.076500
      5 C13          5.5550     1.5430     0.6820 ca         1 T30      -0.154000
      6 C8           4.9650     0.2890     0.7840 ca         1 T30      -0.076500
      7 C3           4.1570    -0.2110    -0.2300 ca         1 T30      -0.067300
      8 C1           3.4880    -1.5490    -0.1520 cx         1 T30      -0.115000
      9 C4           4.2630    -2.7410    -0.6620 cx         1 T30      -0.099900
     10 C5           3.9820    -2.6110     0.7940 cx         1 T30      -0.099900
     11 C2           2.0450    -1.5460    -0.4910 cc         1 T30       0.423800
     12 N6           1.0210    -1.0130     0.2380 na         1 T30      -0.349000
     13 C11          1.0260    -0.2070     1.4690 c3         1 T30       0.094300
     14 C16          1.8710    -0.8170     2.5730 c3         1 T30      -0.106600
     15 C17          1.3610     1.2490     1.1750 c3         1 T30      -0.106600
     16 N7           1.5690    -2.0630    -1.5920 nd         1 T30      -0.367000
     17 N12          0.2330    -1.8790    -1.6090 nd         1 T30      -0.345000
     18 C10         -0.0900    -1.2500    -0.5130 cc         1 T30       0.423000
     19 C15         -1.4610    -0.8590    -0.1660 ca         1 T30      -0.141500
     20 C19         -2.1730    -0.0260    -1.0200 ca         1 T30      -0.055000
     21 C22         -3.4830     0.3410    -0.7480 ca         1 T30      -0.142000
     22 C20         -2.0930    -1.3430     0.9790 ca         1 T30      -0.055000
     23 C23         -3.3970    -0.9850     1.2670 ca         1 T30      -0.142000
     24 C24         -4.0850    -0.1420     0.4050 ca         1 T30       0.153100
     25 O25         -5.3730     0.1390     0.8080 os         1 T30      -0.408100
     26 C26         -6.1840     0.9780     0.1530 c3         1 T30       0.525000
     27 F29         -6.4670     0.5660    -1.0830 f          1 T30      -0.104000
     28 F27         -7.3140     1.0410     0.8360 f          1 T30      -0.104000
     29 F28         -5.6850     2.2110     0.0590 f          1 T30      -0.104000
     30 H14          4.3610     2.4360    -2.3640 ha         1 T30       0.134500
     31 H9           3.3330     0.2050    -2.1710 ha         1 T30       0.125000
     32 H13          6.1790     1.9270     1.4790 ha         1 T30       0.134500
     33 H8           5.1440    -0.2890     1.6810 ha         1 T30       0.125000
     34 H4           3.7260    -3.4860    -1.2320 hc         1 T30       0.083200
     35 H4A          5.2700    -2.5470    -1.0070 hc         1 T30       0.083200
     36 H5           4.7990    -2.3720     1.4630 hc         1 T30       0.083200
     37 H5A          3.2390    -3.2640     1.2340 hc         1 T30       0.083200
     38 H11         -0.0050    -0.2280     1.8150 h1         1 T30       0.063700
     39 H16          2.9390    -0.7290     2.3880 hc         1 T30       0.050867
     40 H16A         1.6530    -0.2910     3.5030 hc         1 T30       0.050867
     41 H16B         1.6300    -1.8690     2.7210 hc         1 T30       0.050867
     42 H17          0.7160     1.6470     0.3910 hc         1 T30       0.050867
     43 H17A         1.1940     1.8400     2.0750 hc         1 T30       0.050867
     44 H17B         2.3970     1.3870     0.8700 hc         1 T30       0.050867
     45 H19         -1.7010     0.3560    -1.9160 ha         1 T30       0.130500
     46 H22         -3.9850     0.9930    -1.4480 ha         1 T30       0.138500
     47 H20         -1.5750    -2.0170     1.6500 ha         1 T30       0.130500
     48 H23         -3.8840    -1.3640     2.1550 ha         1 T30       0.138500
@<TRIPOS>BOND
     1     1     2 1   
     2     2     3 ar  
     3     2     5 ar  
     4     3     4 ar  
     5     3    30 1   
     6     4     7 ar  
     7     4    31 1   
     8     5     6 ar  
     9     5    32 1   
    10     6     7 ar  
    11     6    33 1   
    12     7     8 1   
    13     8     9 1   
    14     8    10 1   
    15     8    11 1   
    16     9    10 1   
    17     9    34 1   
    18     9    35 1   
    19    10    36 1   
    20    10    37 1   
    21    11    12 1   
    22    11    16 2   
    23    12    13 1   
    24    12    18 1   
    25    13    14 1   
    26    13    15 1   
    27    13    38 1   
    28    14    39 1   
    29    14    40 1   
    30    14    41 1   
    31    15    42 1   
    32    15    43 1   
    33    15    44 1   
    34    16    17 1   
    35    17    18 2   
    36    18    19 1   
    37    19    20 ar  
    38    19    22 ar  
    39    20    21 ar  
    40    20    45 1   
    41    21    24 ar  
    42    21    46 1   
    43    22    23 ar  
    44    22    47 1   
    45    23    24 ar  
    46    23    48 1   
    47    24    25 1   
    48    25    26 1   
    49    26    27 1   
    50    26    28 1   
    51    26    29 1   
@<TRIPOS>SUBSTRUCTURE
     1 T30         1 TEMP              0 ****  ****    0 ROOT
