@<TRIPOS>MOLECULE
T34
   35    36     1     0     0
SMALL
No Charge or Current Charge


@<TRIPOS>ATOM
      1 O1           6.0930     1.6440    -0.3290 oh         1 T34      -0.417100
      2 N2           5.0540     0.6690    -0.0600 ns         1 T34      -0.391400
      3 C3           3.7120     1.0380    -0.0320 c          1 T34       0.618700
      4 O4           3.3750     2.2170    -0.0070 o          1 T34      -0.576100
      5 C5           2.6950    -0.0930    -0.0170 ca         1 T34      -0.113600
      6 C6           3.0780    -1.4540     0.0230 ca         1 T34      -0.137000
      7 C7           2.1090    -2.4710     0.0350 ca         1 T34      -0.077000
      8 C8           0.7370    -2.1590     0.0070 ca         1 T34      -0.122300
      9 C9           0.3360    -0.8040    -0.0300 ca         1 T34       0.309000
     10 C10          1.3130     0.2100    -0.0420 ca         1 T34      -0.138000
     11 C11         -0.2870    -3.2940     0.0210 c3         1 T34      -0.046800
     12 N12         -1.0270    -0.4830    -0.0570 nu         1 T34      -0.951200
     13 C13         -1.6450     0.8460     0.0210 c3         1 T34       0.253100
     14 C14         -3.1600     0.7050     0.0040 ca         1 T34      -0.109300
     15 C15         -3.8750     0.5600     1.2100 ca         1 T34      -0.095000
     16 C16         -5.2750     0.4290     1.1940 ca         1 T34      -0.113500
     17 C17         -5.9690     0.4400    -0.0280 ca         1 T34      -0.102000
     18 C18         -5.2620     0.5820    -1.2340 ca         1 T34      -0.113500
     19 C19         -3.8620     0.7130    -1.2190 ca         1 T34      -0.095000
     20 H1           6.7470     1.4920     0.3940 ho         1 T34       0.440000
     21 H2           5.2960    -0.3030    -0.2370 hn         1 T34       0.342500
     22 H3           4.1240    -1.7470     0.0510 ha         1 T34       0.114000
     23 H4           2.4320    -3.5100     0.0660 ha         1 T34       0.113000
     24 H5           1.0000     1.2490    -0.0740 ha         1 T34       0.134000
     25 H6          -0.9420    -3.2240     0.8980 hc         1 T34       0.042700
     26 H7          -0.9170    -3.2680    -0.8760 hc         1 T34       0.042700
     27 H8           0.1950    -4.2780     0.0530 hc         1 T34       0.042700
     28 H9          -1.6670    -1.2760    -0.0540 hn         1 T34       0.474000
     29 H10         -1.3360     1.3560     0.9440 h1         1 T34       0.048700
     30 H11         -1.3250     1.4660    -0.8280 h1         1 T34       0.048700
     31 H12         -3.3440     0.5480     2.1600 ha         1 T34       0.117500
     32 H13         -5.8210     0.3170     2.1280 ha         1 T34       0.114500
     33 H14         -7.0520     0.3380    -0.0410 ha         1 T34       0.114000
     34 H15         -5.7980     0.5890    -2.1810 ha         1 T34       0.114500
     35 H16         -3.3210     0.8200    -2.1570 ha         1 T34       0.117500
@<TRIPOS>BOND
     1     1     2 1   
     2     1    20 1   
     3     2     3 1   
     4     2    21 1   
     5     3     4 2   
     6     3     5 1   
     7     5     6 ar  
     8     5    10 ar  
     9     6     7 ar  
    10     6    22 1   
    11     7     8 ar  
    12     7    23 1   
    13     8     9 ar  
    14     8    11 1   
    15     9    10 ar  
    16     9    12 1   
    17    10    24 1   
    18    11    25 1   
    19    11    26 1   
    20    11    27 1   
    21    12    13 1   
    22    12    28 1   
    23    13    14 1   
    24    13    29 1   
    25    13    30 1   
    26    14    15 ar  
    27    14    19 ar  
    28    15    16 ar  
    29    15    31 1   
    30    16    17 ar  
    31    16    32 1   
    32    17    18 ar  
    33    17    33 1   
    34    18    19 ar  
    35    18    34 1   
    36    19    35 1   
@<TRIPOS>SUBSTRUCTURE
     1 T34         1 TEMP              0 ****  ****    0 ROOT
