@<TRIPOS>MOLECULE
T34
   35    36     1     0     0
SMALL
abcg2


@<TRIPOS>ATOM
      1 O1           5.7710     1.6420     0.1490 oh         1 T34      -0.417100
      2 N2           4.7450     0.7670     0.3220 ns         1 T34      -0.391400
      3 C3           3.5960     0.9230    -0.3580 c          1 T34       0.618700
      4 O4           3.3360     1.9220    -1.0100 o          1 T34      -0.576100
      5 C5           2.6440    -0.2170    -0.2120 ca         1 T34      -0.113600
      6 C6           3.0720    -1.5330    -0.1050 ca         1 T34      -0.137000
      7 C7           2.1230    -2.5440    -0.0020 ca         1 T34      -0.077000
      8 C8           0.7640    -2.2800     0.0080 ca         1 T34      -0.122300
      9 C9           0.3300    -0.9390    -0.1090 ca         1 T34       0.309000
     10 C10          1.2820     0.0730    -0.2350 ca         1 T34      -0.138000
     11 C11         -0.2370    -3.3860     0.1460 c3         1 T34      -0.046800
     12 N12         -1.0180    -0.6700    -0.0610 nu         1 T34      -0.951200
     13 C13         -1.5430     0.6500    -0.3200 c3         1 T34       0.253100
     14 C14         -3.0350     0.6650    -0.1280 ca         1 T34      -0.109300
     15 C15         -3.5950     0.2540     1.0820 ca         1 T34      -0.095000
     16 C16         -4.9690     0.2740     1.2660 ca         1 T34      -0.113500
     17 C17         -5.8060     0.7050     0.2430 ca         1 T34      -0.102000
     18 C18         -5.2580     1.1140    -0.9650 ca         1 T34      -0.113500
     19 C19         -3.8800     1.0900    -1.1470 ca         1 T34      -0.095000
     20 H1           5.6720     2.3180     0.8320 ho         1 T34       0.440000
     21 H2           4.9610    -0.0470     0.8780 hn         1 T34       0.342500
     22 H3           4.1220    -1.7940    -0.1320 ha         1 T34       0.114000
     23 H4           2.4550    -3.5720     0.0740 ha         1 T34       0.113000
     24 H5           0.9730     1.1030    -0.3500 ha         1 T34       0.134000
     25 H6          -0.9110    -3.2140     0.9880 hc         1 T34       0.042700
     26 H7          -0.8630    -3.4840    -0.7460 hc         1 T34       0.042700
     27 H8           0.2550    -4.3440     0.3010 hc         1 T34       0.042700
     28 H9          -1.6170    -1.4170    -0.3760 hn         1 T34       0.474000
     29 H10         -1.0840     1.3560     0.3790 h1         1 T34       0.048700
     30 H11         -1.2960     1.0090    -1.3280 h1         1 T34       0.048700
     31 H12         -2.9500    -0.0830     1.8850 ha         1 T34       0.117500
     32 H13         -5.3890    -0.0480     2.2110 ha         1 T34       0.114500
     33 H14         -6.8780     0.7200     0.3870 ha         1 T34       0.114000
     34 H15         -5.9010     1.4470    -1.7690 ha         1 T34       0.114500
     35 H16         -3.4590     1.4070    -2.0940 ha         1 T34       0.117500
@<TRIPOS>BOND
     1     1     2 1   
     2     1    20 1   
     3     2     3 1   
     4     2    21 1   
     5     3     4 2   
     6     3     5 1   
     7     5     6 ar  
     8     5    10 ar  
     9     6     7 ar  
    10     6    22 1   
    11     7     8 ar  
    12     7    23 1   
    13     8     9 ar  
    14     8    11 1   
    15     9    10 ar  
    16     9    12 1   
    17    10    24 1   
    18    11    25 1   
    19    11    26 1   
    20    11    27 1   
    21    12    13 1   
    22    12    28 1   
    23    13    14 1   
    24    13    29 1   
    25    13    30 1   
    26    14    15 ar  
    27    14    19 ar  
    28    15    16 ar  
    29    15    31 1   
    30    16    17 ar  
    31    16    32 1   
    32    17    18 ar  
    33    17    33 1   
    34    18    19 ar  
    35    18    34 1   
    36    19    35 1   
@<TRIPOS>SUBSTRUCTURE
     1 T34         1 TEMP              0 ****  ****    0 ROOT
