@<TRIPOS>MOLECULE
T35
   79    82     1     0     0
SMALL
No Charge or Current Charge


@<TRIPOS>ATOM
      1 OAF          7.5270     4.0830    -1.4160 o          1 T35      -0.706000
      2 CBF          8.6090     3.5090    -1.3990 c          1 T35       0.706000
      3 OAI          9.2950     3.3780    -2.4050 o          1 T35      -0.706000
      4 CBS          9.0970     2.8220    -0.0620 c3         1 T35       0.035000
      5 CAD          9.8700     1.4880    -0.2870 c3         1 T35      -0.077100
      6 CAE         10.0220     3.8240     0.6730 c3         1 T35      -0.077100
      7 OBD          8.0240     2.5700     0.8950 os         1 T35      -0.340100
      8 CBK          6.9470     1.7180     0.7010 ca         1 T35       0.241100
      9 CAP          6.1400     1.4500     1.8160 ca         1 T35      -0.192000
     10 CAR          5.0300     0.5950     1.7180 ca         1 T35      -0.040500
     11 CAO          6.6200     1.1200    -0.5340 ca         1 T35      -0.192000
     12 CAQ          5.5110     0.2640    -0.6370 ca         1 T35      -0.040500
     13 CBN          4.6990    -0.0140     0.4870 ca         1 T35      -0.242500
     14 CBO          3.5380    -0.9150     0.3670 cc         1 T35       0.371500
     15 CAV          2.6640    -1.2620     1.4180 cc         1 T35      -0.197000
     16 NAY          3.2020    -1.4980    -0.7770 nd         1 T35      -0.381300
     17 OBE          2.0330    -2.2750    -0.4580 os         1 T35      -0.080700
     18 CBP          1.7520    -2.1010     0.8700 cd         1 T35       0.107300
     19 CBQ          0.5600    -2.8000     1.4880 c3         1 T35       0.166000
     20 CAW          0.6870    -4.3400     1.4370 c3         1 T35      -0.074400
     21 CAA         -0.4490    -5.0820     2.1750 c3         1 T35      -0.092100
     22 OBC         -0.6350    -2.4480     0.7640 os         1 T35      -0.440100
     23 CBH         -1.1530    -1.1840     0.8970 c          1 T35       0.658100
     24 OAH         -0.6790    -0.3490     1.6530 o          1 T35      -0.491000
     25 NBR         -2.3320    -1.0070     0.1380 n          1 T35      -0.415400
     26 CAX         -2.7650    -2.1410    -0.7420 c3         1 T35       0.169300
     27 CBI         -3.4930    -3.2770    -0.0210 ca         1 T35      -0.097300
     28 CAM         -4.3060    -3.0380     1.1080 ca         1 T35      -0.093500
     29 CAK         -4.9550    -4.1040     1.7540 ca         1 T35      -0.114500
     30 CAJ         -4.8000    -5.4160     1.2800 ca         1 T35      -0.112000
     31 CAL         -3.9950    -5.6630     0.1560 ca         1 T35      -0.114500
     32 CAN         -3.3450    -4.5980    -0.4920 ca         1 T35      -0.093500
     33 CBG         -3.1070     0.1800     0.1720 c          1 T35       0.686100
     34 OAG         -2.7310     1.1870     0.7550 o          1 T35      -0.541100
     35 NAZ         -4.3400     0.1280    -0.4700 ns         1 T35      -0.147000
     36 CBJ         -5.3500     1.1040    -0.6810 ca         1 T35       0.060000
     37 CAT         -6.6070     0.6550    -1.1160 ca         1 T35      -0.226000
     38 CAS         -5.1490     2.4870    -0.5030 ca         1 T35      -0.226000
     39 CBL         -6.1870     3.3990    -0.7390 ca         1 T35       0.202600
     40 OBA         -5.9160     4.7370    -0.5440 os         1 T35      -0.338100
     41 CAB         -6.9040     5.7610    -0.7560 c3         1 T35       0.151400
     42 CAU         -7.4470     2.9350    -1.1640 ca         1 T35      -0.315000
     43 CBM         -7.6540     1.5560    -1.3540 ca         1 T35       0.202600
     44 OBB         -8.8610     1.0370    -1.7730 os         1 T35      -0.338100
     45 CAC        -10.0030     1.8670    -2.0470 c3         1 T35       0.151400
     46 H2          10.8290     1.6760    -0.7860 hc         1 T35       0.029200
     47 H3          10.0840     0.9960     0.6690 hc         1 T35       0.029200
     48 H4           9.3110     0.7850    -0.9130 hc         1 T35       0.029200
     49 H5          10.8980     4.0660     0.0590 hc         1 T35       0.029200
     50 H6           9.4900     4.7590     0.8850 hc         1 T35       0.029200
     51 H7          10.3780     3.4080     1.6240 hc         1 T35       0.029200
     52 H8           6.3820     1.9100     2.7700 ha         1 T35       0.134000
     53 H9           4.4380     0.4170     2.6110 ha         1 T35       0.104500
     54 H10          7.2030     1.3120    -1.4260 ha         1 T35       0.134000
     55 H11          5.2870    -0.1790    -1.6060 ha         1 T35       0.104500
     56 H12          2.7090    -0.9270     2.4450 ha         1 T35       0.154000
     57 H13          0.4820    -2.4980     2.5420 h1         1 T35       0.079700
     58 H14          0.7130    -4.6690     0.3900 hc         1 T35       0.061700
     59 H15          1.6450    -4.6310     1.8830 hc         1 T35       0.061700
     60 H16         -0.2980    -6.1660     2.1170 hc         1 T35       0.037700
     61 H17         -0.4750    -4.7960     3.2340 hc         1 T35       0.037700
     62 H18         -1.4240    -4.8500     1.7320 hc         1 T35       0.037700
     63 H19         -3.3910    -1.7900    -1.5710 h1         1 T35       0.062200
     64 H20         -1.8800    -2.5530    -1.2450 h1         1 T35       0.062200
     65 H21         -4.4390    -2.0310     1.4950 ha         1 T35       0.121000
     66 H22         -5.5790    -3.9120     2.6250 ha         1 T35       0.111500
     67 H23         -5.3020    -6.2410     1.7820 ha         1 T35       0.108000
     68 H24         -3.8730    -6.6780    -0.2130 ha         1 T35       0.111500
     69 H25         -2.7210    -4.8020    -1.3590 ha         1 T35       0.121000
     70 H26         -4.5700    -0.7770    -0.8560 hn         1 T35       0.166000
     71 H27         -6.7840    -0.4060    -1.2680 ha         1 T35       0.146500
     72 H28         -4.1870     2.8810    -0.1940 ha         1 T35       0.146500
     73 H29         -6.4770     6.7490    -0.5430 h1         1 T35       0.039367
     74 H30         -7.2510     5.7580    -1.7970 h1         1 T35       0.039367
     75 H31         -7.7670     5.6140    -0.0950 h1         1 T35       0.039367
     76 H32         -8.2520     3.6370    -1.3470 ha         1 T35       0.120000
     77 H33        -10.3030     2.4250    -1.1510 h1         1 T35       0.039367
     78 H34         -9.7810     2.5820    -2.8500 h1         1 T35       0.039367
     79 H35        -10.8530     1.2510    -2.3650 h1         1 T35       0.039367
@<TRIPOS>BOND
     1     1     2 1   
     2     2     3 1   
     3     2     4 1   
     4     4     5 1   
     5     4     6 1   
     6     4     7 1   
     7     5    46 1   
     8     5    47 1   
     9     5    48 1   
    10     6    49 1   
    11     6    50 1   
    12     6    51 1   
    13     7     8 1   
    14     8     9 ar  
    15     8    11 ar  
    16     9    10 ar  
    17     9    52 1   
    18    10    13 ar  
    19    10    53 1   
    20    11    12 ar  
    21    11    54 1   
    22    12    13 ar  
    23    12    55 1   
    24    13    14 1   
    25    14    15 1   
    26    14    16 2   
    27    15    18 2   
    28    15    56 1   
    29    16    17 1   
    30    17    18 1   
    31    18    19 1   
    32    19    20 1   
    33    19    22 1   
    34    19    57 1   
    35    20    21 1   
    36    20    58 1   
    37    20    59 1   
    38    21    60 1   
    39    21    61 1   
    40    21    62 1   
    41    22    23 1   
    42    23    24 2   
    43    23    25 1   
    44    25    26 1   
    45    25    33 1   
    46    26    27 1   
    47    26    63 1   
    48    26    64 1   
    49    27    28 ar  
    50    27    32 ar  
    51    28    29 ar  
    52    28    65 1   
    53    29    30 ar  
    54    29    66 1   
    55    30    31 ar  
    56    30    67 1   
    57    31    32 ar  
    58    31    68 1   
    59    32    69 1   
    60    33    34 2   
    61    33    35 1   
    62    35    36 1   
    63    35    70 1   
    64    36    37 ar  
    65    36    38 ar  
    66    37    43 ar  
    67    37    71 1   
    68    38    39 ar  
    69    38    72 1   
    70    39    40 1   
    71    39    42 ar  
    72    40    41 1   
    73    41    73 1   
    74    41    74 1   
    75    41    75 1   
    76    42    43 ar  
    77    42    76 1   
    78    43    44 1   
    79    44    45 1   
    80    45    77 1   
    81    45    78 1   
    82    45    79 1   
@<TRIPOS>SUBSTRUCTURE
     1 T35         1 TEMP              0 ****  ****    0 ROOT
