@<TRIPOS>MOLECULE
T35
   79    82     1     0     0
SMALL
bcc


@<TRIPOS>ATOM
      1 OAF          6.4240     3.7120    -2.2120 o          1 T35      -0.811300
      2 CBF          7.4670     3.0440    -2.2970 c          1 T35       0.916600
      3 OAI          7.9960     2.5860    -3.3280 o          1 T35      -0.811300
      4 CBS          8.2380     2.8080    -0.9640 c3         1 T35       0.011800
      5 CAD          9.2000     1.6270    -0.9880 c3         1 T35      -0.077100
      6 CAE          9.0170     4.0850    -0.6630 c3         1 T35      -0.077100
      7 OBD          7.3280     2.6850     0.1430 os         1 T35      -0.316900
      8 CBK          6.3440     1.7820     0.1670 ca         1 T35       0.241100
      9 CAP          5.5560     1.7790     1.3220 ca         1 T35      -0.210000
     10 CAR          4.5150     0.8840     1.4690 ca         1 T35      -0.058500
     11 CAO          6.0560     0.8500    -0.8360 ca         1 T35      -0.210000
     12 CAQ          5.0090    -0.0400    -0.6770 ca         1 T35      -0.058500
     13 CBN          4.2180    -0.0440     0.4710 ca         1 T35      -0.242500
     14 CBO          3.1120    -0.9860     0.6280 cc         1 T35       0.436800
     15 CAV          2.2470    -1.1530     1.7470 cc         1 T35      -0.345600
     16 NAY          2.7890    -1.8230    -0.3230 nd         1 T35      -0.381300
     17 OBE          1.7350    -2.5490     0.1360 os         1 T35      -0.125100
     18 CBP          1.4150    -2.1450     1.3670 cd         1 T35       0.217000
     19 CBQ          0.2870    -2.8330     2.0560 c3         1 T35       0.142800
     20 CAW          0.4680    -4.3420     2.1410 c3         1 T35      -0.074400
     21 CAA         -0.6110    -5.0210     2.9720 c3         1 T35      -0.092100
     22 OBC         -0.9240    -2.5980     1.3270 os         1 T35      -0.416900
     23 CBH         -1.5550    -1.4440     1.5090 c          1 T35       0.774100
     24 OAH         -1.1970    -0.5740     2.2630 o          1 T35      -0.540000
     25 NBR         -2.6530    -1.3690     0.6910 n          1 T35      -0.549400
     26 CAX         -2.9830    -2.4380    -0.2530 c3         1 T35       0.169300
     27 CBI         -3.3790    -3.7300     0.4160 ca         1 T35      -0.097300
     28 CAM         -4.1840    -3.7400     1.5510 ca         1 T35      -0.111500
     29 CAK         -4.5700    -4.9410     2.1290 ca         1 T35      -0.132500
     30 CAJ         -4.1620    -6.1480     1.5750 ca         1 T35      -0.130000
     31 CAL         -3.3620    -6.1440     0.4410 ca         1 T35      -0.132500
     32 CAN         -2.9710    -4.9410    -0.1310 ca         1 T35      -0.111500
     33 CBG         -3.5210    -0.2560     0.8570 c          1 T35       0.820100
     34 OAG         -3.9630     0.0620     1.9350 o          1 T35      -0.541100
     35 NAZ         -3.7810     0.3620    -0.3190 ns         1 T35      -0.473100
     36 CBJ         -4.6990     1.3820    -0.5910 ca         1 T35       0.152600
     37 CAT         -4.6750     1.8850    -1.8900 ca         1 T35      -0.244000
     38 CAS         -5.6030     1.8760     0.3420 ca         1 T35      -0.244000
     39 CBL         -6.4850     2.8830    -0.0480 ca         1 T35       0.202600
     40 OBA         -7.3290     3.3060     0.9100 os         1 T35      -0.314900
     41 CAB         -8.2470     4.3380     0.6070 c3         1 T35       0.128200
     42 CAU         -6.4770     3.4020    -1.3400 ca         1 T35      -0.333000
     43 CBM         -5.5610     2.8900    -2.2580 ca         1 T35       0.202600
     44 OBB         -5.4690     3.3160    -3.5290 os         1 T35      -0.314900
     45 CAC         -6.3560     4.3220    -3.9790 c3         1 T35       0.128200
     46 H2           9.9540     1.7820    -1.7570 hc         1 T35       0.029200
     47 H3           9.7140     1.5400    -0.0290 hc         1 T35       0.029200
     48 H4           8.7160     0.6730    -1.1960 hc         1 T35       0.029200
     49 H5           9.7460     4.2670    -1.4530 hc         1 T35       0.029200
     50 H6           8.3550     4.9500    -0.6080 hc         1 T35       0.029200
     51 H7           9.5600     4.0030     0.2810 hc         1 T35       0.029200
     52 H8           5.7680     2.4930     2.1080 ha         1 T35       0.152000
     53 H9           3.9290     0.9190     2.3780 ha         1 T35       0.122500
     54 H10          6.6330     0.7960    -1.7470 ha         1 T35       0.152000
     55 H11          4.8100    -0.7480    -1.4710 ha         1 T35       0.122500
     56 H12          2.2410    -0.6200     2.6820 ha         1 T35       0.172000
     57 H13          0.2060    -2.4180     3.0630 h1         1 T35       0.079700
     58 H14          0.4970    -4.7680     1.1350 hc         1 T35       0.061700
     59 H15          1.4490    -4.5270     2.5860 hc         1 T35       0.061700
     60 H16         -0.4070    -6.0890     3.0460 hc         1 T35       0.037700
     61 H17         -0.6380    -4.6210     3.9860 hc         1 T35       0.037700
     62 H18         -1.6000    -4.9060     2.5310 hc         1 T35       0.037700
     63 H19         -3.8190    -2.0860    -0.8580 h1         1 T35       0.062200
     64 H20         -2.1550    -2.6020    -0.9430 h1         1 T35       0.062200
     65 H21         -4.5090    -2.8080     1.9990 ha         1 T35       0.139000
     66 H22         -5.1930    -4.9340     3.0140 ha         1 T35       0.129500
     67 H23         -4.4600    -7.0840     2.0280 ha         1 T35       0.126000
     68 H24         -3.0330    -7.0790     0.0060 ha         1 T35       0.129500
     69 H25         -2.3330    -4.9470    -1.0080 ha         1 T35       0.139000
     70 H26         -3.2090     0.0880    -1.1040 hn         1 T35       0.332500
     71 H27         -3.9730     1.4980    -2.6190 ha         1 T35       0.164500
     72 H28         -5.6410     1.5100     1.3540 ha         1 T35       0.164500
     73 H29         -8.8110     4.5230     1.5180 h1         1 T35       0.039367
     74 H30         -7.7420     5.2610     0.3120 h1         1 T35       0.039367
     75 H31         -8.9430     4.0480    -0.1840 h1         1 T35       0.039367
     76 H32         -7.1650     4.1860    -1.6230 ha         1 T35       0.138000
     77 H33         -7.4000     4.0060    -3.9090 h1         1 T35       0.039367
     78 H34         -6.2310     5.2550    -3.4240 h1         1 T35       0.039367
     79 H35         -6.1140     4.5000    -5.0240 h1         1 T35       0.039367
@<TRIPOS>BOND
     1     1     2 1   
     2     2     3 1   
     3     2     4 1   
     4     4     5 1   
     5     4     6 1   
     6     4     7 1   
     7     5    46 1   
     8     5    47 1   
     9     5    48 1   
    10     6    49 1   
    11     6    50 1   
    12     6    51 1   
    13     7     8 1   
    14     8     9 ar  
    15     8    11 ar  
    16     9    10 ar  
    17     9    52 1   
    18    10    13 ar  
    19    10    53 1   
    20    11    12 ar  
    21    11    54 1   
    22    12    13 ar  
    23    12    55 1   
    24    13    14 1   
    25    14    15 1   
    26    14    16 2   
    27    15    18 2   
    28    15    56 1   
    29    16    17 1   
    30    17    18 1   
    31    18    19 1   
    32    19    20 1   
    33    19    22 1   
    34    19    57 1   
    35    20    21 1   
    36    20    58 1   
    37    20    59 1   
    38    21    60 1   
    39    21    61 1   
    40    21    62 1   
    41    22    23 1   
    42    23    24 2   
    43    23    25 1   
    44    25    26 1   
    45    25    33 1   
    46    26    27 1   
    47    26    63 1   
    48    26    64 1   
    49    27    28 ar  
    50    27    32 ar  
    51    28    29 ar  
    52    28    65 1   
    53    29    30 ar  
    54    29    66 1   
    55    30    31 ar  
    56    30    67 1   
    57    31    32 ar  
    58    31    68 1   
    59    32    69 1   
    60    33    34 2   
    61    33    35 1   
    62    35    36 1   
    63    35    70 1   
    64    36    37 ar  
    65    36    38 ar  
    66    37    43 ar  
    67    37    71 1   
    68    38    39 ar  
    69    38    72 1   
    70    39    40 1   
    71    39    42 ar  
    72    40    41 1   
    73    41    73 1   
    74    41    74 1   
    75    41    75 1   
    76    42    43 ar  
    77    42    76 1   
    78    43    44 1   
    79    44    45 1   
    80    45    77 1   
    81    45    78 1   
    82    45    79 1   
@<TRIPOS>SUBSTRUCTURE
     1 T35         1 TEMP              0 ****  ****    0 ROOT
