@<TRIPOS>MOLECULE
T3A
   31    30     1     0     0
SMALL
abcg2


@<TRIPOS>ATOM
      1 S1          -3.8080    -0.0460     0.2250 s6         1 T3A       1.323600
      2 O1          -3.8380     1.0060     1.2620 o          1 T3A      -0.699200
      3 O2          -3.8130    -1.4110     0.7890 o          1 T3A      -0.699200
      4 O3          -4.8300     0.1470    -0.8240 o          1 T3A      -0.699200
      5 C1          -2.2250     0.1330    -0.6130 c3         1 T3A      -0.356400
      6 C2          -1.0350    -0.0330     0.3160 c3         1 T3A      -0.036400
      7 C3           0.2810     0.1270    -0.4340 c3         1 T3A       0.164800
      8 N1           1.3960    -0.0300     0.4790 n7         1 T3A      -0.862400
      9 C4           2.7410    -0.0340    -0.0900 c3         1 T3A       0.203200
     10 C5           3.6830     0.0570     1.1160 c3         1 T3A       0.155267
     11 O5           5.0240    -0.0150     0.6890 oh         1 T3A      -0.657333
     12 C6           2.9470     1.1620    -1.0180 c3         1 T3A       0.155267
     13 O6           2.6480     2.3580    -0.3400 oh         1 T3A      -0.657333
     14 C7           3.0260    -1.2940    -0.9210 c3         1 T3A       0.155267
     15 O7           2.8830    -2.4280    -0.0960 oh         1 T3A      -0.657333
     16 H11         -2.2210     1.1210    -1.0810 h1         1 T3A       0.061700
     17 H12         -2.2040    -0.6100    -1.4140 h1         1 T3A       0.061700
     18 H21         -1.0720    -1.0220     0.7820 hc         1 T3A       0.055200
     19 H22         -1.0820     0.7040     1.1200 hc         1 T3A       0.055200
     20 H31          0.3120     1.1270    -0.8730 h1         1 T3A       0.020200
     21 H32          0.2930    -0.5820    -1.2770 h1         1 T3A       0.020200
     22 HN1          1.2740    -0.8960     0.9920 hn         1 T3A       0.424000
     23 H51          3.4460    -0.7550     1.8170 h1         1 T3A       0.027033
     24 H52          3.4770     0.9950     1.6410 h1         1 T3A       0.027033
     25 HO5          5.5880     0.1680     1.4450 ho         1 T3A       0.435333
     26 H61          3.9860     1.1510    -1.3710 h1         1 T3A       0.027033
     27 H62          2.3170     1.0430    -1.9100 h1         1 T3A       0.027033
     28 HO6          2.8230     3.0870    -0.9410 ho         1 T3A       0.435333
     29 H71          2.3220    -1.3270    -1.7620 h1         1 T3A       0.027033
     30 H72          4.0310    -1.2380    -1.3560 h1         1 T3A       0.027033
     31 HO7          2.9530    -3.2110    -0.6480 ho         1 T3A       0.435333
@<TRIPOS>BOND
     1     1     2 1   
     2     1     3 1   
     3     1     4 1   
     4     1     5 1   
     5     5     6 1   
     6     5    16 1   
     7     5    17 1   
     8     6     7 1   
     9     6    18 1   
    10     6    19 1   
    11     7     8 1   
    12     7    20 1   
    13     7    21 1   
    14     8     9 1   
    15     8    22 1   
    16     9    10 1   
    17     9    12 1   
    18     9    14 1   
    19    10    11 1   
    20    10    23 1   
    21    10    24 1   
    22    11    25 1   
    23    12    13 1   
    24    12    26 1   
    25    12    27 1   
    26    13    28 1   
    27    14    15 1   
    28    14    29 1   
    29    14    30 1   
    30    15    31 1   
@<TRIPOS>SUBSTRUCTURE
     1 T3A         1 TEMP              0 ****  ****    0 ROOT
