@<TRIPOS>MOLECULE
T3A
   31    30     1     0     0
SMALL
No Charge or Current Charge


@<TRIPOS>ATOM
      1 S1          -3.9070    -0.0930     0.2340 s6         1 T3A       1.323600
      2 O1          -3.9070     0.9600     1.2600 o          1 T3A      -0.699200
      3 O2          -3.8470    -1.4630     0.7610 o          1 T3A      -0.699200
      4 O3          -4.8940     0.1040    -0.8380 o          1 T3A      -0.699200
      5 C1          -2.3190     0.1210    -0.6120 c3         1 T3A      -0.356400
      6 C2          -1.0860    -0.0420     0.3150 c3         1 T3A      -0.036400
      7 C3           0.2500     0.1460    -0.4330 c3         1 T3A       0.164800
      8 N1           1.3880    -0.0290     0.4960 n7         1 T3A      -0.862400
      9 C4           2.7820     0.0060    -0.0770 c3         1 T3A       0.203200
     10 C5           3.7850     0.0750     1.1310 c3         1 T3A       0.155267
     11 O5           5.1670     0.0630     0.7150 oh         1 T3A      -0.657333
     12 C6           3.0060     1.2380    -1.0370 c3         1 T3A       0.155267
     13 O6           2.7810     2.5120    -0.3940 oh         1 T3A      -0.657333
     14 C7           3.0100    -1.3230    -0.8820 c3         1 T3A       0.155267
     15 O7           2.6420    -2.4890    -0.1110 oh         1 T3A      -0.657333
     16 H11         -2.3340     1.1240    -1.0520 h1         1 T3A       0.061700
     17 H12         -2.2930    -0.6240    -1.4140 h1         1 T3A       0.061700
     18 H21         -1.1020    -1.0390     0.7740 hc         1 T3A       0.055200
     19 H22         -1.1420     0.6900     1.1320 hc         1 T3A       0.055200
     20 H31          0.2630     1.1490    -0.8790 h1         1 T3A       0.020200
     21 H32          0.3010    -0.5880    -1.2490 h1         1 T3A       0.020200
     22 HN1          1.3020    -0.9700     0.8990 hn         1 T3A       0.424000
     23 H51          3.5960    -0.7750     1.8010 h1         1 T3A       0.027033
     24 H52          3.5820     0.9850     1.7110 h1         1 T3A       0.027033
     25 HO5          5.7110     0.1250     1.5310 ho         1 T3A       0.435333
     26 H61          4.0310     1.1990    -1.4280 h1         1 T3A       0.027033
     27 H62          2.3420     1.1410    -1.9070 h1         1 T3A       0.027033
     28 HO6          2.9080     3.2050    -1.0780 ho         1 T3A       0.435333
     29 H71          2.4130    -1.2900    -1.8030 h1         1 T3A       0.027033
     30 H72          4.0620    -1.3890    -1.1920 h1         1 T3A       0.027033
     31 HO7          2.8300    -3.2740    -0.6710 ho         1 T3A       0.435333
@<TRIPOS>BOND
     1     1     2 1   
     2     1     3 1   
     3     1     4 1   
     4     1     5 1   
     5     5     6 1   
     6     5    16 1   
     7     5    17 1   
     8     6     7 1   
     9     6    18 1   
    10     6    19 1   
    11     7     8 1   
    12     7    20 1   
    13     7    21 1   
    14     8     9 1   
    15     8    22 1   
    16     9    10 1   
    17     9    12 1   
    18     9    14 1   
    19    10    11 1   
    20    10    23 1   
    21    10    24 1   
    22    11    25 1   
    23    12    13 1   
    24    12    26 1   
    25    12    27 1   
    26    13    28 1   
    27    14    15 1   
    28    14    29 1   
    29    14    30 1   
    30    15    31 1   
@<TRIPOS>SUBSTRUCTURE
     1 T3A         1 TEMP              0 ****  ****    0 ROOT
