@<TRIPOS>MOLECULE
T3C
   54    57     1     0     0
SMALL
abcg2


@<TRIPOS>ATOM
      1 C01          8.5600    -0.7880     0.2180 c3         1 T3C       0.221100
      2 N02          7.5710     0.2660     0.2200 nu         1 T3C      -0.915100
      3 C03          6.2680     0.0100     0.2220 cc         1 T3C       0.733300
      4 N04          5.7690    -1.2030     0.2270 nd         1 T3C      -0.766000
      5 C05          4.4190    -1.1930     0.2290 cd         1 T3C       0.440300
      6 C06          3.7340    -2.5190     0.2330 c3         1 T3C      -0.124400
      7 C07          3.8250     0.0610     0.2270 cc         1 T3C      -0.387500
      8 C08          2.4240     0.3770     0.2290 ca         1 T3C       0.346500
      9 N09          1.5830    -0.6470     0.2070 nb         1 T3C      -0.288000
     10 C10          0.2710    -0.4300     0.2150 ca         1 T3C       0.418900
     11 N11         -0.4750    -1.5560     0.1930 nu         1 T3C      -0.918900
     12 C12         -1.8530    -1.7790     0.2210 ca         1 T3C       0.342000
     13 C13         -2.2500    -3.1210     0.2510 ca         1 T3C      -0.206000
     14 C14         -3.5970    -3.4220     0.2650 ca         1 T3C      -0.048000
     15 C15         -4.5650    -2.4270     0.2650 ca         1 T3C      -0.206000
     16 C16         -4.1830    -1.0800     0.2300 ca         1 T3C       0.349000
     17 N17         -5.1070    -0.0480     0.2000 nh         1 T3C      -0.827400
     18 C18         -6.4920    -0.3430    -0.0980 c3         1 T3C       0.220800
     19 C19         -7.2380     0.8110    -0.7590 c3         1 T3C      -0.119400
     20 C20         -7.4270     2.0490     0.1210 c3         1 T3C       0.166800
     21 N21         -6.3260     2.9950     0.1930 n7         1 T3C      -0.874400
     22 C22         -4.9760     2.4490     0.2630 c3         1 T3C       0.156800
     23 C23         -4.8770     1.1310     1.0210 c3         1 T3C       0.209800
     24 C24         -2.8110    -0.7740     0.1970 ca         1 T3C      -0.191000
     25 N25         -0.3230     0.7680     0.2400 nb         1 T3C      -0.241000
     26 C26          0.4920     1.7990     0.2600 ca         1 T3C       0.190900
     27 C27          1.8810     1.6920     0.2560 ca         1 T3C      -0.217000
     28 C28          2.6250     2.8940     0.2810 cg         1 T3C       0.346000
     29 N29          3.1760     3.9080     0.3070 n1         1 T3C      -0.463000
     30 S30          5.0890     1.2800     0.2220 ss         1 T3C      -0.062400
     31 H011         8.4660    -1.4240     1.0980 h1         1 T3C       0.047033
     32 H012         8.4760    -1.4140    -0.6710 h1         1 T3C       0.047033
     33 H013         9.5420    -0.3260     0.2260 h1         1 T3C       0.047033
     34 H02          7.8870     1.2200     0.2080 hn         1 T3C       0.509000
     35 H061         3.0750    -2.6280     1.0930 hc         1 T3C       0.058700
     36 H062         3.1130    -2.6510    -0.6510 hc         1 T3C       0.058700
     37 H063         4.4840    -3.3070     0.2590 hc         1 T3C       0.058700
     38 H11          0.0900    -2.3930     0.1740 hn         1 T3C       0.509000
     39 H13         -1.5110    -3.9120     0.2660 ha         1 T3C       0.112000
     40 H24         -2.4910     0.2530     0.1240 ha         1 T3C       0.153000
     41 H14         -3.9060    -4.4590     0.2990 ha         1 T3C       0.110000
     42 H15         -5.6060    -2.7130     0.3210 ha         1 T3C       0.114000
     43 H181        -6.5230    -1.1900    -0.7830 h1         1 T3C       0.036200
     44 H182        -7.0420    -0.6450     0.8070 h1         1 T3C       0.036200
     45 H231        -5.5670     1.1330     1.8760 h1         1 T3C       0.051200
     46 H232        -3.8820     1.0650     1.4580 h1         1 T3C       0.051200
     47 H191        -6.7550     1.0800    -1.7020 hc         1 T3C       0.049200
     48 H192        -8.2270     0.4240    -1.0180 hc         1 T3C       0.049200
     49 H201        -8.2930     2.6090    -0.2340 h1         1 T3C       0.045700
     50 H202        -7.6890     1.7120     1.1310 h1         1 T3C       0.045700
     51 H21         -6.3790     3.6230    -0.5960 hn         1 T3C       0.411000
     52 H221        -4.5280     2.2880    -0.7270 h1         1 T3C       0.041700
     53 H222        -4.3400     3.1820     0.7710 h1         1 T3C       0.041700
     54 H26          0.0340     2.7820     0.2810 h4         1 T3C       0.030100
@<TRIPOS>BOND
     1     1     2 1   
     2     1    31 1   
     3     1    32 1   
     4     1    33 1   
     5     2     3 1   
     6     2    34 1   
     7     3     4 2   
     8     3    30 1   
     9     4     5 1   
    10     5     6 1   
    11     5     7 2   
    12     6    35 1   
    13     6    36 1   
    14     6    37 1   
    15     7     8 1   
    16     7    30 1   
    17     8     9 ar  
    18     8    27 ar  
    19     9    10 ar  
    20    10    11 1   
    21    10    25 ar  
    22    11    12 1   
    23    11    38 1   
    24    12    13 ar  
    25    12    24 ar  
    26    13    14 ar  
    27    13    39 1   
    28    14    15 ar  
    29    14    41 1   
    30    15    16 ar  
    31    15    42 1   
    32    16    17 1   
    33    16    24 ar  
    34    17    18 1   
    35    17    23 1   
    36    18    19 1   
    37    18    43 1   
    38    18    44 1   
    39    19    20 1   
    40    19    47 1   
    41    19    48 1   
    42    20    21 1   
    43    20    49 1   
    44    20    50 1   
    45    21    22 1   
    46    21    51 1   
    47    22    23 1   
    48    22    52 1   
    49    22    53 1   
    50    23    45 1   
    51    23    46 1   
    52    24    40 1   
    53    25    26 ar  
    54    26    27 ar  
    55    26    54 1   
    56    27    28 1   
    57    28    29 3   
@<TRIPOS>SUBSTRUCTURE
     1 T3C         1 TEMP              0 ****  ****    0 ROOT
