@<TRIPOS>MOLECULE
T3C
   54    57     1     0     0
SMALL
No Charge or Current Charge


@<TRIPOS>ATOM
      1 C01          8.3770    -0.6190    -1.0990 c3         1 T3C       0.221100
      2 N02          7.2270     0.3030    -1.1270 nu         1 T3C      -0.915100
      3 C03          6.0080     0.1060    -0.5510 cc         1 T3C       0.733300
      4 N04          5.7830    -1.0110     0.1070 nd         1 T3C      -0.766000
      5 C05          4.4890    -1.0080     0.6050 cd         1 T3C       0.440300
      6 C06          4.0240    -2.1980     1.4000 c3         1 T3C      -0.124400
      7 C07          3.7810     0.1440     0.3250 cc         1 T3C      -0.387500
      8 C08          2.3710     0.2970     0.6800 ca         1 T3C       0.346500
      9 N09          1.5350    -0.7040     0.3380 nb         1 T3C      -0.288000
     10 C10          0.2410    -0.5580     0.6520 ca         1 T3C       0.418900
     11 N11         -0.5590    -1.6330     0.2980 nu         1 T3C      -0.918900
     12 C12         -1.9310    -1.8880     0.3270 ca         1 T3C       0.342000
     13 C13         -2.3540    -3.2230     0.3980 ca         1 T3C      -0.206000
     14 C14         -3.7220    -3.5360     0.4180 ca         1 T3C      -0.048000
     15 C15         -4.6700    -2.5040     0.3580 ca         1 T3C      -0.206000
     16 C16         -4.2580    -1.1620     0.2700 ca         1 T3C       0.349000
     17 N17         -5.2090    -0.1190     0.1970 nh         1 T3C      -0.827400
     18 C18         -6.4480    -0.2760    -0.5990 c3         1 T3C       0.220800
     19 C19         -6.8690     0.9590    -1.4270 c3         1 T3C      -0.119400
     20 C20         -7.3000     2.1670    -0.5680 c3         1 T3C       0.166800
     21 N21         -6.1690     3.0490    -0.1910 n7         1 T3C      -0.874400
     22 C22         -4.9050     2.4280     0.3140 c3         1 T3C       0.156800
     23 C23         -5.0850     1.0800     1.0760 c3         1 T3C       0.209800
     24 C24         -2.8870    -0.8650     0.2490 ca         1 T3C      -0.191000
     25 N25         -0.3140     0.4790     1.3010 nb         1 T3C      -0.241000
     26 C26          0.5140     1.4790     1.6510 ca         1 T3C       0.190900
     27 C27          1.8860     1.4350     1.3580 ca         1 T3C      -0.217000
     28 C28          2.7330     2.5070     1.7810 cg         1 T3C       0.346000
     29 N29          3.4110     3.3870     2.1370 n1         1 T3C      -0.463000
     30 S30          4.7060     1.2640    -0.6350 ss         1 T3C      -0.062400
     31 H011         8.6940    -0.8080    -0.0650 h1         1 T3C       0.047033
     32 H012         8.1130    -1.5790    -1.5640 h1         1 T3C       0.047033
     33 H013         9.2270    -0.1920    -1.6480 h1         1 T3C       0.047033
     34 H02          7.3220     1.1920    -1.6150 hn         1 T3C       0.509000
     35 H061         3.4280    -1.8860     2.2650 hc         1 T3C       0.058700
     36 H062         3.4100    -2.8620     0.7820 hc         1 T3C       0.058700
     37 H063         4.8720    -2.7820     1.7780 hc         1 T3C       0.058700
     38 H11         -0.0050    -2.4440     0.0260 hn         1 T3C       0.509000
     39 H13         -1.6230    -4.0260     0.4480 ha         1 T3C       0.112000
     40 H24         -2.5760     0.1650     0.1410 ha         1 T3C       0.153000
     41 H14         -4.0450    -4.5730     0.4840 ha         1 T3C       0.110000
     42 H15         -5.7270    -2.7500     0.3860 ha         1 T3C       0.114000
     43 H181        -6.3160    -1.1060    -1.3070 h1         1 T3C       0.036200
     44 H182        -7.2750    -0.5570     0.0670 h1         1 T3C       0.036200
     45 H231        -5.9520     1.1520     1.7460 h1         1 T3C       0.051200
     46 H232        -4.2120     0.9570     1.7300 h1         1 T3C       0.051200
     47 H191        -6.0730     1.2400    -2.1260 hc         1 T3C       0.049200
     48 H192        -7.7270     0.6620    -2.0400 hc         1 T3C       0.049200
     49 H201        -8.0380     2.7530    -1.1330 h1         1 T3C       0.045700
     50 H202        -7.8170     1.7960     0.3290 h1         1 T3C       0.045700
     51 H21         -5.9250     3.6340    -1.0000 hn         1 T3C       0.411000
     52 H221        -4.2170     2.2460    -0.5230 h1         1 T3C       0.041700
     53 H222        -4.4000     3.1380     0.9830 h1         1 T3C       0.041700
     54 H26          0.0680     2.3200     2.1810 h4         1 T3C       0.030100
@<TRIPOS>BOND
     1     1     2 1   
     2     1    31 1   
     3     1    32 1   
     4     1    33 1   
     5     2     3 1   
     6     2    34 1   
     7     3     4 2   
     8     3    30 1   
     9     4     5 1   
    10     5     6 1   
    11     5     7 2   
    12     6    35 1   
    13     6    36 1   
    14     6    37 1   
    15     7     8 1   
    16     7    30 1   
    17     8     9 ar  
    18     8    27 ar  
    19     9    10 ar  
    20    10    11 1   
    21    10    25 ar  
    22    11    12 1   
    23    11    38 1   
    24    12    13 ar  
    25    12    24 ar  
    26    13    14 ar  
    27    13    39 1   
    28    14    15 ar  
    29    14    41 1   
    30    15    16 ar  
    31    15    42 1   
    32    16    17 1   
    33    16    24 ar  
    34    17    18 1   
    35    17    23 1   
    36    18    19 1   
    37    18    43 1   
    38    18    44 1   
    39    19    20 1   
    40    19    47 1   
    41    19    48 1   
    42    20    21 1   
    43    20    49 1   
    44    20    50 1   
    45    21    22 1   
    46    21    51 1   
    47    22    23 1   
    48    22    52 1   
    49    22    53 1   
    50    23    45 1   
    51    23    46 1   
    52    24    40 1   
    53    25    26 ar  
    54    26    27 ar  
    55    26    54 1   
    56    27    28 1   
    57    28    29 3   
@<TRIPOS>SUBSTRUCTURE
     1 T3C         1 TEMP              0 ****  ****    0 ROOT
