@<TRIPOS>MOLECULE
T3F
   60    62     1     0     0
SMALL
abcg2


@<TRIPOS>ATOM
      1 O2B         -3.5610    -1.8110    -1.8850 o          1 T3F      -0.840000
      2 PB          -3.2310    -1.8420    -0.4120 p5         1 T3F       1.488800
      3 O1B         -3.8250    -2.8900     0.4670 o          1 T3F      -0.840000
      4 O3B         -3.5230    -0.3450     0.2000 os         1 T3F      -0.625400
      5 C1Q         -4.8260     0.1650     0.3820 c6         1 T3F       0.426300
      6 O5Q         -4.7920     1.0540     1.4490 os         1 T3F      -0.462000
      7 C5Q         -3.9660     2.2000     1.2600 c6         1 T3F       0.150300
      8 C6Q         -4.0500     3.0200     2.5320 c3         1 T3F      -0.086100
      9 C2Q         -5.3400     0.8670    -0.8840 c6         1 T3F       0.106300
     10 O2Q         -5.5100    -0.0000    -1.9720 oh         1 T3F      -0.800000
     11 C3Q         -4.4380     2.0680    -1.2050 c6         1 T3F       0.136500
     12 N3Q         -4.8240     2.8220    -2.3840 n8         1 T3F      -1.006200
     13 C4Q         -4.3710     2.9880     0.0130 c6         1 T3F       0.147300
     14 O4Q         -5.6350     3.6040     0.1570 oh         1 T3F      -0.726000
     15 O3A         -1.6170    -1.7370    -0.2350 os         1 T3F      -0.689800
     16 PA          -0.6260    -3.0000     0.1490 p5         1 T3F       1.464800
     17 O1A         -0.4900    -3.1160     1.6340 o          1 T3F      -0.846500
     18 O2A         -0.9780    -4.1870    -0.6880 o          1 T3F      -0.846500
     19 O5           0.7090    -2.2680    -0.4680 os         1 T3F      -0.572400
     20 C5           1.9730    -2.6230     0.0540 c3         1 T3F       0.239600
     21 C4           3.0470    -2.2410    -0.9340 c5         1 T3F       0.163300
     22 O4           3.0550    -0.8360    -1.1220 os         1 T3F      -0.403000
     23 C3           4.4490    -2.6220    -0.4550 c5         1 T3F       0.127300
     24 O3           4.7460    -3.9210    -0.9020 oh         1 T3F      -0.702000
     25 C2           5.3190    -1.5210    -1.0620 c5         1 T3F      -0.154400
     26 C1           4.3540    -0.3630    -1.3360 c5         1 T3F       0.346700
     27 N1           4.5600     0.8490    -0.5440 n          1 T3F      -0.311000
     28 C9           4.5240     0.7860     0.8300 c          1 T3F       0.621000
     29 O2           4.3660    -0.2440     1.4520 o          1 T3F      -0.533000
     30 N3           4.6870     1.9930     1.4580 ns         1 T3F      -0.468500
     31 C6           4.7250     2.0480    -1.1870 cc         1 T3F       0.022600
     32 C7           4.8860     3.2280    -0.5650 cd         1 T3F      -0.297400
     33 C5M          5.0740     4.5170    -1.2950 c3         1 T3F      -0.008900
     34 C8           4.8720     3.2370     0.8840 c          1 T3F       0.596200
     35 O6           5.0070     4.2280     1.5790 o          1 T3F      -0.562000
     36 H1Q         -5.5140    -0.6380     0.6740 h2         1 T3F       0.073700
     37 H5Q         -2.9220     1.8910     1.1210 h1         1 T3F       0.079700
     38 H6Q         -3.6730     2.4530     3.3830 hc         1 T3F       0.027033
     39 H6QA        -3.4380     3.9190     2.4420 hc         1 T3F       0.027033
     40 H6QB        -5.0730     3.3230     2.7570 hc         1 T3F       0.027033
     41 H2Q         -6.3380     1.2470    -0.6380 h1         1 T3F       0.044700
     42 HO2Q        -4.7360    -0.6050    -2.0590 ho         1 T3F       0.589000
     43 H3Q         -3.4230     1.6960    -1.3800 h1         1 T3F       0.097700
     44 HN3Q        -4.8550     2.1960    -3.1780 hn         1 T3F       0.393000
     45 HN3A        -5.7680     3.1720    -2.2710 hn         1 T3F       0.393000
     46 H4Q         -3.5910     3.7410    -0.1660 h1         1 T3F       0.024700
     47 HO4Q        -5.5420     4.3730     0.7260 ho         1 T3F       0.479000
     48 H5           2.1600    -2.1170     1.0070 h1         1 T3F       0.028200
     49 H5'A         2.0600    -3.7010     0.2300 h1         1 T3F       0.028200
     50 H4           2.8570    -2.7410    -1.8950 h1         1 T3F       0.072700
     51 H3           4.4940    -2.5700     0.6370 h1         1 T3F       0.071700
     52 HO3          5.5020    -4.2460    -0.4050 ho         1 T3F       0.489000
     53 H2           6.1650    -1.2340    -0.4400 hc         1 T3F       0.052200
     54 H2'A         5.7170    -1.8700    -2.0160 hc         1 T3F       0.052200
     55 H1           4.4660    -0.0290    -2.3700 h2         1 T3F       0.046700
     56 HN3          4.6680     1.9570     2.4700 hn         1 T3F       0.337500
     57 H6           4.7240     1.9890    -2.2670 h4         1 T3F       0.200000
     58 H5M          4.2830     5.2300    -1.0570 hc         1 T3F       0.036700
     59 H5MA         6.0220     4.9880    -1.0330 hc         1 T3F       0.036700
     60 H5MB         5.0670     4.3570    -2.3720 hc         1 T3F       0.036700
@<TRIPOS>BOND
     1     1     2 1   
     2     2     3 1   
     3     2     4 1   
     4     2    15 1   
     5     4     5 1   
     6     5     6 1   
     7     5     9 1   
     8     5    36 1   
     9     6     7 1   
    10     7     8 1   
    11     7    13 1   
    12     7    37 1   
    13     8    38 1   
    14     8    39 1   
    15     8    40 1   
    16     9    10 1   
    17     9    11 1   
    18     9    41 1   
    19    10    42 1   
    20    11    12 1   
    21    11    13 1   
    22    11    43 1   
    23    12    44 1   
    24    12    45 1   
    25    13    14 1   
    26    13    46 1   
    27    14    47 1   
    28    15    16 1   
    29    16    17 1   
    30    16    18 1   
    31    16    19 1   
    32    19    20 1   
    33    20    21 1   
    34    20    48 1   
    35    20    49 1   
    36    21    22 1   
    37    21    23 1   
    38    21    50 1   
    39    22    26 1   
    40    23    24 1   
    41    23    25 1   
    42    23    51 1   
    43    24    52 1   
    44    25    26 1   
    45    25    53 1   
    46    25    54 1   
    47    26    27 1   
    48    26    55 1   
    49    27    28 1   
    50    27    31 1   
    51    28    29 2   
    52    28    30 1   
    53    30    34 1   
    54    30    56 1   
    55    31    32 2   
    56    31    57 1   
    57    32    33 1   
    58    32    34 1   
    59    33    58 1   
    60    33    59 1   
    61    33    60 1   
    62    34    35 2   
@<TRIPOS>SUBSTRUCTURE
     1 T3F         1 TEMP              0 ****  ****    0 ROOT
