@<TRIPOS>MOLECULE
T3F
   60    62     1     0     0
SMALL
No Charge or Current Charge


@<TRIPOS>ATOM
      1 O2B         -3.3830    -2.1040    -1.4890 o          1 T3F      -0.840000
      2 PB          -2.6460    -2.0490    -0.1930 p5         1 T3F       1.488800
      3 O1B         -3.4470    -2.5700     0.9510 o          1 T3F      -0.840000
      4 O3B         -2.2220    -0.5340     0.1080 os         1 T3F      -0.625400
      5 C1Q         -3.1400     0.5050    -0.2400 c6         1 T3F       0.426300
      6 O5Q         -2.9340     1.5970     0.6870 os         1 T3F      -0.462000
      7 C5Q         -1.6380     2.2350     0.5860 c6         1 T3F       0.150300
      8 C6Q         -1.5300     3.2330     1.7690 c3         1 T3F      -0.086100
      9 C2Q         -3.0010     1.0320    -1.7340 c6         1 T3F       0.106300
     10 O2Q         -3.1600     0.0320    -2.7820 oh         1 T3F      -0.800000
     11 C3Q         -1.6370     1.7880    -1.9000 c6         1 T3F       0.136500
     12 N3Q         -1.5050     2.3280    -3.2850 n8         1 T3F      -1.006200
     13 C4Q         -1.4930     2.9090    -0.8140 c6         1 T3F       0.147300
     14 O4Q         -2.4910     3.9380    -1.0100 oh         1 T3F      -0.726000
     15 O3A         -1.1890    -2.6070    -0.3750 os         1 T3F      -0.689800
     16 PA          -1.0100    -4.0580     0.2020 p5         1 T3F       1.464800
     17 O1A         -0.8940    -4.1130     1.6900 o          1 T3F      -0.846500
     18 O2A         -2.0050    -5.0310    -0.3400 o          1 T3F      -0.846500
     19 O5           0.4220    -4.3830    -0.4680 os         1 T3F      -0.572400
     20 C5           1.6410    -3.7980     0.0290 c3         1 T3F       0.239600
     21 C4           1.9120    -2.4330    -0.6650 c5         1 T3F       0.163300
     22 O4           1.4320    -1.3260     0.1200 os         1 T3F      -0.403000
     23 C3           3.4200    -2.0620    -0.7930 c5         1 T3F       0.127300
     24 O3           4.1040    -2.7900    -1.8180 oh         1 T3F      -0.702000
     25 C2           3.3270    -0.5450    -1.1280 c5         1 T3F      -0.154400
     26 C1           1.9430    -0.1520    -0.5250 c5         1 T3F       0.346700
     27 N1           2.1480     1.0130     0.3760 n          1 T3F      -0.311000
     28 C9           2.4970     0.8350     1.7340 c          1 T3F       0.621000
     29 O2           2.7400    -0.2390     2.2580 o          1 T3F      -0.533000
     30 N3           2.5890     1.9750     2.4700 ns         1 T3F      -0.468500
     31 C6           1.9860     2.2900    -0.1650 cc         1 T3F       0.022600
     32 C7           2.1060     3.4080     0.6300 cd         1 T3F      -0.297400
     33 C5M          1.9330     4.8190     0.1160 c3         1 T3F      -0.008900
     34 C8           2.4220     3.2610     2.0710 c          1 T3F       0.596200
     35 O6           2.5390     4.1880     2.8550 o          1 T3F      -0.562000
     36 H1Q         -4.1700     0.1380    -0.0970 h2         1 T3F       0.073700
     37 H5Q         -0.8460     1.4810     0.7110 h1         1 T3F       0.079700
     38 H6Q         -1.5690     2.7030     2.7290 hc         1 T3F       0.027033
     39 H6QA        -0.5830     3.7810     1.7360 hc         1 T3F       0.027033
     40 H6QB        -2.3430     3.9680     1.7600 hc         1 T3F       0.027033
     41 H2Q         -3.8030     1.7760    -1.8620 h1         1 T3F       0.044700
     42 HO2Q        -3.2700    -0.8710    -2.3180 ho         1 T3F       0.589000
     43 H3Q         -0.8330     1.0490    -1.7510 h1         1 T3F       0.097700
     44 HN3Q        -2.0540     1.6900    -3.8770 hn         1 T3F       0.393000
     45 HN3A        -2.0450     3.2010    -3.3110 hn         1 T3F       0.393000
     46 H4Q         -0.4900     3.3500    -0.8930 h1         1 T3F       0.024700
     47 HO4Q        -3.2360     3.7040    -0.4120 ho         1 T3F       0.479000
     48 H5           1.6160    -3.6600     1.1170 h1         1 T3F       0.028200
     49 H5'A         2.4760    -4.4750    -0.1940 h1         1 T3F       0.028200
     50 H4           1.4220    -2.4240    -1.6490 h1         1 T3F       0.072700
     51 H3           3.9150    -2.2070     0.1800 h1         1 T3F       0.071700
     52 HO3          5.0250    -2.4410    -1.8570 ho         1 T3F       0.489000
     53 H2           4.1660     0.0150    -0.6980 hc         1 T3F       0.052200
     54 H2'A         3.3340    -0.3580    -2.2080 hc         1 T3F       0.052200
     55 H1           1.2520     0.1590    -1.3180 h2         1 T3F       0.046700
     56 HN3          2.8290     1.8470     3.4390 hn         1 T3F       0.337500
     57 H6           1.7660     2.2940    -1.2300 h4         1 T3F       0.200000
     58 H5M          1.1190     5.3360     0.6380 hc         1 T3F       0.036700
     59 H5MA         2.8490     5.4060     0.2580 hc         1 T3F       0.036700
     60 H5MB         1.6970     4.8300    -0.9550 hc         1 T3F       0.036700
@<TRIPOS>BOND
     1     1     2 1   
     2     2     3 1   
     3     2     4 1   
     4     2    15 1   
     5     4     5 1   
     6     5     6 1   
     7     5     9 1   
     8     5    36 1   
     9     6     7 1   
    10     7     8 1   
    11     7    13 1   
    12     7    37 1   
    13     8    38 1   
    14     8    39 1   
    15     8    40 1   
    16     9    10 1   
    17     9    11 1   
    18     9    41 1   
    19    10    42 1   
    20    11    12 1   
    21    11    13 1   
    22    11    43 1   
    23    12    44 1   
    24    12    45 1   
    25    13    14 1   
    26    13    46 1   
    27    14    47 1   
    28    15    16 1   
    29    16    17 1   
    30    16    18 1   
    31    16    19 1   
    32    19    20 1   
    33    20    21 1   
    34    20    48 1   
    35    20    49 1   
    36    21    22 1   
    37    21    23 1   
    38    21    50 1   
    39    22    26 1   
    40    23    24 1   
    41    23    25 1   
    42    23    51 1   
    43    24    52 1   
    44    25    26 1   
    45    25    53 1   
    46    25    54 1   
    47    26    27 1   
    48    26    55 1   
    49    27    28 1   
    50    27    31 1   
    51    28    29 2   
    52    28    30 1   
    53    30    34 1   
    54    30    56 1   
    55    31    32 2   
    56    31    57 1   
    57    32    33 1   
    58    32    34 1   
    59    33    58 1   
    60    33    59 1   
    61    33    60 1   
    62    34    35 2   
@<TRIPOS>SUBSTRUCTURE
     1 T3F         1 TEMP              0 ****  ****    0 ROOT
