@<TRIPOS>MOLECULE
T3G
   34    35     1     0     0
SMALL
abcg2


@<TRIPOS>ATOM
      1 N1          -3.1620    -0.0730    -0.0980 n          1 T3G      -0.419800
      2 C4           2.3190     1.2500    -0.4630 ca         1 T3G       0.292500
      3 C5           1.9420     0.0280     0.0960 ca         1 T3G      -0.393500
      4 C6          -1.0960    -1.2700     0.3960 c6         1 T3G       0.170800
      5 C7          -2.6140    -1.2940     0.4540 c6         1 T3G       0.098500
      6 C8          -2.6680     1.1130     0.5660 c6         1 T3G       0.098500
      7 C10         -4.0030    -0.0900    -1.1600 c          1 T3G       0.610100
      8 N           -0.6150    -0.0720     1.0860 n3         1 T3G      -0.719500
      9 C            2.3650    -1.1220    -0.5720 ca         1 T3G       0.292500
     10 O            1.2200    -1.3310     2.2270 o          1 T3G      -0.518000
     11 C1           3.1410    -1.0720    -1.7100 ca         1 T3G      -0.196500
     12 C11         -4.4880     1.2430    -1.6770 c3         1 T3G      -0.177100
     13 C2           3.5080     0.1640    -2.2160 ca         1 T3G      -0.004000
     14 C3           3.0940     1.3340    -1.6010 ca         1 T3G      -0.196500
     15 C9          -1.1490     1.1640     0.5120 c6         1 T3G       0.170800
     16 F            2.0030    -2.3190    -0.1200 f          1 T3G      -0.146500
     17 O2          -4.3590    -1.1370    -1.6830 o          1 T3G      -0.599100
     18 S            0.9550    -0.0600     1.5850 sy         1 T3G       1.169600
     19 H3          -0.7140    -2.1630     0.8850 h1         1 T3G       0.065450
     20 H4          -0.7700    -1.2770    -0.6510 h1         1 T3G       0.065450
     21 H5          -2.9370    -1.4020     1.4940 h1         1 T3G       0.067200
     22 H6          -2.9820    -2.1510    -0.1020 h1         1 T3G       0.067200
     23 H7          -3.0590     2.0150     0.1060 h1         1 T3G       0.067200
     24 H8          -2.9920     1.1090     1.6110 h1         1 T3G       0.067200
     25 H            3.4470    -1.9920    -2.1900 ha         1 T3G       0.143500
     26 H13         -3.6630     1.8540    -2.0470 hc         1 T3G       0.061700
     27 H11         -5.1800     1.0730    -2.4980 hc         1 T3G       0.061700
     28 H12         -5.0020     1.8180    -0.9070 hc         1 T3G       0.061700
     29 H1           4.1170     0.2170    -3.1080 ha         1 T3G       0.128000
     30 H2           3.3620     2.3050    -1.9950 ha         1 T3G       0.143500
     31 H9          -0.8230     1.2890    -0.5280 h1         1 T3G       0.065450
     32 H10         -0.8110     2.0220     1.0890 h1         1 T3G       0.065450
     33 F1           1.9130     2.3860     0.0960 f          1 T3G      -0.146500
     34 O1           1.1670     1.1590     2.3360 o          1 T3G      -0.518000
@<TRIPOS>BOND
     1     1     5 1   
     2     1     6 1   
     3     1     7 1   
     4     2     3 ar  
     5     2    14 ar  
     6     2    33 1   
     7     3     9 ar  
     8     3    18 1   
     9     4     5 1   
    10     4     8 1   
    11     4    19 1   
    12     4    20 1   
    13     5    21 1   
    14     5    22 1   
    15     6    15 1   
    16     6    23 1   
    17     6    24 1   
    18     7    12 1   
    19     7    17 2   
    20     8    15 1   
    21     8    18 1   
    22     9    11 ar  
    23     9    16 1   
    24    10    18 2   
    25    11    13 ar  
    26    11    25 1   
    27    12    26 1   
    28    12    27 1   
    29    12    28 1   
    30    13    14 ar  
    31    13    29 1   
    32    14    30 1   
    33    15    31 1   
    34    15    32 1   
    35    18    34 2   
@<TRIPOS>SUBSTRUCTURE
     1 T3G         1 TEMP              0 ****  ****    0 ROOT
