@<TRIPOS>MOLECULE
T3G
   34    35     1     0     0
SMALL
No Charge or Current Charge


@<TRIPOS>ATOM
      1 N1          -3.0690    -0.0490    -0.4580 n          1 T3G      -0.419800
      2 C4           2.3840     1.2550    -0.3120 ca         1 T3G       0.292500
      3 C5           2.0120     0.0110     0.2370 ca         1 T3G      -0.393500
      4 C6          -0.9400    -1.2540     0.3300 c6         1 T3G       0.170800
      5 C7          -2.4630    -1.3180     0.0510 c6         1 T3G       0.098500
      6 C8          -2.5080     1.1970     0.1560 c6         1 T3G       0.098500
      7 C10         -4.3780    -0.0750    -0.9900 c          1 T3G       0.610100
      8 N           -0.5710    -0.0740     1.1480 n3         1 T3G      -0.719500
      9 C            2.4260    -1.1660    -0.4180 ca         1 T3G       0.292500
     10 O            1.2160    -1.3660     2.4020 o          1 T3G      -0.518000
     11 C1           3.1960    -1.0980    -1.5890 ca         1 T3G      -0.196500
     12 C11         -5.0040     1.2330    -1.4770 c3         1 T3G      -0.177100
     13 C2           3.5670     0.1420    -2.1250 ca         1 T3G      -0.004000
     14 C3           3.1540     1.3170    -1.4830 ca         1 T3G      -0.196500
     15 C9          -0.9830     1.1610     0.4380 c6         1 T3G       0.170800
     16 F            2.0840    -2.3900     0.0370 f          1 T3G      -0.146500
     17 O2          -4.9840    -1.1310    -1.1200 o          1 T3G      -0.599100
     18 S            1.0320    -0.0720     1.7380 sy         1 T3G       1.169600
     19 H3          -0.6510    -2.1890     0.8320 h1         1 T3G       0.065450
     20 H4          -0.4120    -1.2320    -0.6350 h1         1 T3G       0.065450
     21 H5          -2.9740    -1.5920     0.9850 h1         1 T3G       0.067200
     22 H6          -2.6490    -2.1300    -0.6660 h1         1 T3G       0.067200
     23 H7          -2.7050     2.0630    -0.4900 h1         1 T3G       0.067200
     24 H8          -3.0310     1.3770     1.1060 h1         1 T3G       0.067200
     25 H            3.5040    -2.0170    -2.0820 ha         1 T3G       0.143500
     26 H13         -4.2980     1.7480    -2.1380 hc         1 T3G       0.061700
     27 H11         -5.9730     1.0770    -1.9660 hc         1 T3G       0.061700
     28 H12         -5.0970     1.9250    -0.6330 hc         1 T3G       0.061700
     29 H1           4.1640     0.1920    -3.0340 ha         1 T3G       0.128000
     30 H2           3.4290     2.2850    -1.8930 ha         1 T3G       0.143500
     31 H9          -0.4520     1.2450    -0.5220 h1         1 T3G       0.065450
     32 H10         -0.7290     2.0570     1.0230 h1         1 T3G       0.065450
     33 F1           2.0000     2.4220     0.2480 f          1 T3G      -0.146500
     34 O1           1.1720     1.1660     2.5130 o          1 T3G      -0.518000
@<TRIPOS>BOND
     1     1     5 1   
     2     1     6 1   
     3     1     7 1   
     4     2     3 ar  
     5     2    14 ar  
     6     2    33 1   
     7     3     9 ar  
     8     3    18 1   
     9     4     5 1   
    10     4     8 1   
    11     4    19 1   
    12     4    20 1   
    13     5    21 1   
    14     5    22 1   
    15     6    15 1   
    16     6    23 1   
    17     6    24 1   
    18     7    12 1   
    19     7    17 2   
    20     8    15 1   
    21     8    18 1   
    22     9    11 ar  
    23     9    16 1   
    24    10    18 2   
    25    11    13 ar  
    26    11    25 1   
    27    12    26 1   
    28    12    27 1   
    29    12    28 1   
    30    13    14 ar  
    31    13    29 1   
    32    14    30 1   
    33    15    31 1   
    34    15    32 1   
    35    18    34 2   
@<TRIPOS>SUBSTRUCTURE
     1 T3G         1 TEMP              0 ****  ****    0 ROOT
