@<TRIPOS>MOLECULE
T3H
   66    70     1     0     0
SMALL
bcc


@<TRIPOS>ATOM
      1 C12         15.4560    -1.6140    -5.5360 c5         1 T3H       0.231800
      2 C13         16.6740    -0.6910    -5.5240 c5         1 T3H      -0.093400
      3 C14         16.1340     0.6300    -4.9850 c5         1 T3H      -0.078400
      4 C15         14.6990     0.6740    -5.5210 c5         1 T3H       0.158500
      5 C19         14.1420     3.3480    -8.1780 c3         1 T3H       0.148300
      6 C23          9.9820     3.6380    -9.0820 ca         1 T3H      -0.071200
      7 C25          8.6990     5.4160    -9.1490 cc         1 T3H       0.487400
      8 C16         14.6500     1.2860    -6.9260 c          1 T3H       0.638100
      9 C20         12.6780     3.4870    -8.5210 ca         1 T3H      -0.139300
     10 C01          9.4210    -4.2150   -10.0540 c3         1 T3H       0.123100
     11 C03          8.8450    -3.0740    -8.1010 c2         1 T3H       0.825100
     12 C05          6.5250    -3.2550    -7.2170 c3         1 T3H       0.214100
     13 C07         10.4480    -1.9770    -6.6110 ca         1 T3H       0.098600
     14 C08         11.4700    -2.8950    -6.3850 ca         1 T3H      -0.092500
     15 C09         12.7430    -2.4810    -6.0370 ca         1 T3H      -0.192000
     16 C10         13.0530    -1.1190    -5.8830 ca         1 T3H       0.199600
     17 C21         11.9270     2.3310    -8.8220 ca         1 T3H      -0.087000
     18 C22         10.5770     2.3810    -9.1020 ca         1 T3H      -0.133000
     19 C26          7.4900     6.1900    -9.3040 cc         1 T3H      -0.236500
     20 C27          6.1780     5.7950    -9.4480 cd         1 T3H       0.268200
     21 C33         10.7060     4.8050    -8.7960 ca         1 T3H       0.064400
     22 C34         12.0700     4.7280    -8.5080 ca         1 T3H      -0.061000
     23 C35         12.0090    -0.2020    -6.0770 ca         1 T3H      -0.192000
     24 C36         10.7430    -0.6290    -6.4470 ca         1 T3H      -0.092500
     25 N02          9.7770    -3.4170    -8.9080 n2         1 T3H      -0.721900
     26 N04          7.5130    -3.3230    -8.2700 nu         1 T3H      -0.910200
     27 N11         14.3170    -0.7120    -5.5430 nh         1 T3H      -0.679000
     28 N18         14.3410     2.5930    -6.9580 ns         1 T3H      -0.571900
     29 N24          8.7020     4.0640    -9.3030 na         1 T3H      -0.247300
     30 N28          5.4170     6.8960    -9.5500 nd         1 T3H      -0.353000
     31 N29          6.1750     7.9370    -9.4780 nc         1 T3H      -0.194800
     32 N30          7.4240     7.5390    -9.3310 na         1 T3H       0.143400
     33 N32          9.8770     5.8950    -8.8450 nd         1 T3H      -0.579100
     34 H122        15.4340    -2.2640    -4.6550 h1         1 T3H       0.047200
     35 H121        15.4600    -2.2630    -6.4170 h1         1 T3H       0.047200
     36 H132        17.4820    -1.0910    -4.9130 hc         1 T3H       0.059700
     37 H131        17.0610    -0.5620    -6.5350 hc         1 T3H       0.059700
     38 H142        16.1010     0.6180    -3.8940 hc         1 T3H       0.056700
     39 H141        16.7230     1.4960    -5.2870 hc         1 T3H       0.056700
     40 H151        14.0590     1.2500    -4.8450 h1         1 T3H       0.064700
     41 H191        14.6810     2.8440    -8.9790 h1         1 T3H       0.066200
     42 H192        14.5920     4.3340    -8.0570 h1         1 T3H       0.066200
     43 H012        10.3250    -4.4980   -10.5940 h1         1 T3H       0.023367
     44 H011         8.9030    -5.1510    -9.8020 h1         1 T3H       0.023367
     45 H013         8.7810    -3.6880   -10.7740 h1         1 T3H       0.023367
     46 H053         5.5950    -3.6690    -7.5980 h1         1 T3H       0.033367
     47 H051         6.8110    -3.8240    -6.3290 h1         1 T3H       0.033367
     48 H052         6.3140    -2.2280    -6.9110 h1         1 T3H       0.033367
     49 H081        11.2700    -3.9540    -6.4790 ha         1 T3H       0.130000
     50 H091        13.5010    -3.2360    -5.8720 ha         1 T3H       0.127000
     51 H211        12.4250     1.3700    -8.8350 ha         1 T3H       0.159000
     52 H221        10.0160     1.4830    -9.3270 ha         1 T3H       0.146000
     53 H271         5.7640     4.8000    -9.4750 h4         1 T3H       0.045100
     54 H311         8.0310     9.4990    -9.3770 h1         1 T3H       0.072367
     55 H313         8.9560     8.4770    -8.2570 h1         1 T3H       0.072367
     56 H312         9.2310     8.3460   -10.0000 h1         1 T3H       0.072367
     57 H341        12.6340     5.6230    -8.2750 ha         1 T3H       0.144000
     58 H351        12.1690     0.8610    -5.9620 ha         1 T3H       0.127000
     59 H361         9.9700     0.1130    -6.6130 ha         1 T3H       0.130000
     60 H041         7.2730    -3.9080    -9.0510 hn         1 T3H       0.429800
     61 H061         8.4230    -1.7570    -6.6130 hn         1 T3H       0.418800
     62 H181        14.0730     3.0440    -6.0970 hn         1 T3H       0.309500
     63 H241         7.9160     3.4810    -9.5490 hn         1 T3H       0.314700
     64 O17         14.9000     0.6210    -7.9190 o          1 T3H      -0.585100
     65 N06          9.1410    -2.3900    -6.9330 nu         1 T3H      -0.718600
     66 C31          8.4820     8.5220    -9.2330 c3         1 T3H       0.036600
@<TRIPOS>BOND
     1     1     2 1   
     2     1    27 1   
     3     1    34 1   
     4     1    35 1   
     5     2     3 1   
     6     2    36 1   
     7     2    37 1   
     8     3     4 1   
     9     3    38 1   
    10     3    39 1   
    11     4     8 1   
    12     4    27 1   
    13     4    40 1   
    14     5     9 1   
    15     5    28 1   
    16     5    41 1   
    17     5    42 1   
    18     6    18 ar  
    19     6    21 ar  
    20     6    29 1   
    21     7    19 1   
    22     7    29 1   
    23     7    33 2   
    24     8    28 1   
    25     8    64 2   
    26     9    17 ar  
    27     9    22 ar  
    28    10    25 1   
    29    10    43 1   
    30    10    44 1   
    31    10    45 1   
    32    11    25 2   
    33    11    26 1   
    34    11    65 1   
    35    12    26 1   
    36    12    46 1   
    37    12    47 1   
    38    12    48 1   
    39    13    14 ar  
    40    13    24 ar  
    41    13    65 1   
    42    14    15 ar  
    43    14    49 1   
    44    15    16 ar  
    45    15    50 1   
    46    16    23 ar  
    47    16    27 1   
    48    17    18 ar  
    49    17    51 1   
    50    18    52 1   
    51    19    20 2   
    52    19    32 1   
    53    20    30 1   
    54    20    53 1   
    55    21    22 ar  
    56    21    33 1   
    57    22    57 1   
    58    23    24 ar  
    59    23    58 1   
    60    24    59 1   
    61    26    60 1   
    62    28    62 1   
    63    29    63 1   
    64    30    31 2   
    65    31    32 1   
    66    32    66 1   
    67    54    66 1   
    68    55    66 1   
    69    56    66 1   
    70    61    65 1   
@<TRIPOS>SUBSTRUCTURE
     1 T3H         1 TEMP              0 ****  ****    0 ROOT
