@<TRIPOS>MOLECULE
T3H
   66    70     1     0     0
SMALL
No Charge or Current Charge


@<TRIPOS>ATOM
      1 C12         15.1990    -1.2390    -4.5870 c5         1 T3H       0.231800
      2 C13         16.6380    -0.9560    -5.0850 c5         1 T3H      -0.093400
      3 C14         16.7120     0.5910    -4.9820 c5         1 T3H      -0.078400
      4 C15         15.3320     1.0400    -5.5490 c5         1 T3H       0.158500
      5 C19         14.5570     2.9800    -8.7550 c3         1 T3H       0.148300
      6 C23         10.3960     2.1460    -9.3960 ca         1 T3H      -0.071200
      7 C25          8.6090     3.3840    -9.0110 cc         1 T3H       0.487400
      8 C16         15.3930     1.2690    -7.1150 c          1 T3H       0.571100
      9 C20         13.0890     2.7030    -9.0290 ca         1 T3H      -0.139300
     10 C01          8.7620    -2.5000   -10.2820 c3         1 T3H       0.123100
     11 C03          8.6160    -1.1380    -8.2690 c2         1 T3H       0.825100
     12 C05          6.3380    -0.3480    -7.7420 c3         1 T3H       0.214100
     13 C07         10.4620    -0.4100    -6.7560 ca         1 T3H       0.237000
     14 C08         11.2620    -1.5640    -6.6490 ca         1 T3H      -0.074500
     15 C09         12.5750    -1.4820    -6.1470 ca         1 T3H      -0.174000
     16 C10         13.1120    -0.2480    -5.7300 ca         1 T3H       0.338000
     17 C21         12.6850     1.4330    -9.5150 ca         1 T3H      -0.069000
     18 C22         11.3190     1.1420    -9.7080 ca         1 T3H      -0.115000
     19 C26          7.2130     3.6930    -8.9440 cc         1 T3H      -0.221900
     20 C27          6.1700     2.8930    -9.3050 cd         1 T3H       0.202900
     21 C33         10.7630     3.3750    -8.9330 ca         1 T3H       0.064400
     22 C34         12.1150     3.6900    -8.7390 ca         1 T3H      -0.043000
     23 C35         12.3000     0.8990    -5.8180 ca         1 T3H      -0.174000
     24 C36         10.9880     0.8190    -6.3230 ca         1 T3H      -0.074500
     25 N02          9.2790    -1.8910    -9.0450 n2         1 T3H      -0.721900
     26 N04          7.4950    -0.4950    -8.6440 nu         1 T3H      -0.965400
     27 N11         14.4430    -0.1400    -5.2480 nh         1 T3H      -0.817400
     28 N18         14.8940     2.5230    -7.4100 ns         1 T3H      -0.504900
     29 N24          9.0380     2.1310    -9.4350 na         1 T3H      -0.297600
     30 N28          4.9970     3.5890    -9.0830 nd         1 T3H      -0.353000
     31 N29          5.2760     4.7780    -8.6070 nc         1 T3H      -0.194800
     32 N30          6.6350     4.8620    -8.5180 na         1 T3H       0.164800
     33 N32          9.6510     4.1740    -8.6870 nd         1 T3H      -0.579100
     34 H122        15.1280    -1.1610    -3.4930 h1         1 T3H       0.047200
     35 H121        14.8760    -2.2470    -4.8770 h1         1 T3H       0.047200
     36 H132        17.3940    -1.4580    -4.4720 hc         1 T3H       0.059700
     37 H131        16.7740    -1.3000    -6.1170 hc         1 T3H       0.059700
     38 H142        16.8190     0.9040    -3.9370 hc         1 T3H       0.056700
     39 H141        17.5580     1.0170    -5.5340 hc         1 T3H       0.056700
     40 H151        14.9900     1.9580    -5.0510 h1         1 T3H       0.064700
     41 H191        15.1860     2.4700    -9.4980 h1         1 T3H       0.066200
     42 H192        14.7590     4.0570    -8.8280 h1         1 T3H       0.066200
     43 H012         8.9400    -3.5830   -10.2760 h1         1 T3H       0.023367
     44 H011         7.6830    -2.3480   -10.4140 h1         1 T3H       0.023367
     45 H013         9.2740    -2.0820   -11.1590 h1         1 T3H       0.023367
     46 H053         5.4870     0.0890    -8.2800 h1         1 T3H       0.033367
     47 H051         6.0320    -1.3270    -7.3510 h1         1 T3H       0.033367
     48 H052         6.5790     0.3070    -6.8940 h1         1 T3H       0.033367
     49 H081        10.8700    -2.5280    -6.9590 ha         1 T3H       0.112000
     50 H091        13.1690    -2.3880    -6.1090 ha         1 T3H       0.109000
     51 H211        13.4300     0.6670    -9.7230 ha         1 T3H       0.141000
     52 H221        10.9970     0.1660   -10.0630 ha         1 T3H       0.128000
     53 H271         6.1810     1.8890    -9.7100 h4         1 T3H       0.045100
     54 H311         6.5240     6.8280    -7.7480 h1         1 T3H       0.072367
     55 H313         7.8780     5.8410    -7.1280 h1         1 T3H       0.072367
     56 H312         7.9350     6.4960    -8.7920 h1         1 T3H       0.072367
     57 H341        12.4000     4.6650    -8.3510 ha         1 T3H       0.126000
     58 H351        12.6780     1.8620    -5.4920 ha         1 T3H       0.109000
     59 H361        10.3830     1.7200    -6.3840 ha         1 T3H       0.112000
     60 H041         7.2370    -0.7970    -9.5770 hn         1 T3H       0.485000
     61 H061         8.6110     0.3720    -7.1110 hn         1 T3H       0.474000
     62 H181        14.5940     3.0930    -6.6290 hn         1 T3H       0.309500
     63 H241         8.4440     1.3300    -9.6070 hn         1 T3H       0.365000
     64 O17         15.7960     0.4960    -7.9800 o          1 T3H      -0.585100
     65 N06          9.1560    -0.4630    -7.2490 nu         1 T3H      -0.912200
     66 C31          7.2820     6.0830    -8.0150 c3         1 T3H       0.065900
@<TRIPOS>BOND
     1     1     2 1   
     2     1    27 1   
     3     1    34 1   
     4     1    35 1   
     5     2     3 1   
     6     2    36 1   
     7     2    37 1   
     8     3     4 1   
     9     3    38 1   
    10     3    39 1   
    11     4     8 1   
    12     4    27 1   
    13     4    40 1   
    14     5     9 1   
    15     5    28 1   
    16     5    41 1   
    17     5    42 1   
    18     6    18 ar  
    19     6    21 ar  
    20     6    29 1   
    21     7    19 1   
    22     7    29 1   
    23     7    33 2   
    24     8    28 1   
    25     8    64 2   
    26     9    17 ar  
    27     9    22 ar  
    28    10    25 1   
    29    10    43 1   
    30    10    44 1   
    31    10    45 1   
    32    11    25 2   
    33    11    26 1   
    34    11    65 1   
    35    12    26 1   
    36    12    46 1   
    37    12    47 1   
    38    12    48 1   
    39    13    14 ar  
    40    13    24 ar  
    41    13    65 1   
    42    14    15 ar  
    43    14    49 1   
    44    15    16 ar  
    45    15    50 1   
    46    16    23 ar  
    47    16    27 1   
    48    17    18 ar  
    49    17    51 1   
    50    18    52 1   
    51    19    20 2   
    52    19    32 1   
    53    20    30 1   
    54    20    53 1   
    55    21    22 ar  
    56    21    33 1   
    57    22    57 1   
    58    23    24 ar  
    59    23    58 1   
    60    24    59 1   
    61    26    60 1   
    62    28    62 1   
    63    29    63 1   
    64    30    31 2   
    65    31    32 1   
    66    32    66 1   
    67    54    66 1   
    68    55    66 1   
    69    56    66 1   
    70    61    65 1   
@<TRIPOS>SUBSTRUCTURE
     1 T3H         1 TEMP              0 ****  ****    0 ROOT
