@<TRIPOS>MOLECULE
T3I
   44    46     1     0     0
SMALL
No Charge or Current Charge


@<TRIPOS>ATOM
      1 N           -3.2540    -4.5870    14.6560 n3         1 T3I      -0.787500
      2 C           -3.9250    -3.6430    13.7350 c3         1 T3I       0.190100
      3 O           -5.0890    -4.2150    16.4160 o          1 T3I      -0.535000
      4 C9          -9.4220   -13.9770    15.4870 ca         1 T3I       0.127000
      5 C8          -8.1470   -13.5060    15.8380 ca         1 T3I      -0.103500
      6 C7          -7.6940   -12.2690    15.3440 ca         1 T3I      -0.089000
      7 C10        -10.2460   -13.2130    14.6470 ca         1 T3I      -0.103500
      8 C11         -9.7930   -11.9760    14.1530 ca         1 T3I      -0.089000
      9 C6          -8.5060   -11.4850    14.4870 cp         1 T3I      -0.030000
     10 C5          -8.0240   -10.1680    13.9720 cp         1 T3I       0.004000
     11 C4          -7.3810    -9.2350    14.8240 ca         1 T3I      -0.084000
     12 C12         -8.1670    -9.7790    12.6250 ca         1 T3I      -0.058800
     13 C15         -7.7400    -8.5610    12.1630 ca         1 T3I      -0.062200
     14 N2          -8.0230    -8.4650    10.8030 na         1 T3I      -0.229700
     15 C14         -8.6340    -9.6450    10.3380 cc         1 T3I      -0.149100
     16 C13         -8.7140   -10.4450    11.4660 cd         1 T3I      -0.243200
     17 C16         -7.1170    -7.6100    12.9960 ca         1 T3I      -0.050300
     18 C17         -6.7580    -6.2380    12.4190 c3         1 T3I      -0.049800
     19 C3          -6.9070    -7.9740    14.3660 ca         1 T3I      -0.140600
     20 C2          -6.2080    -7.0970    15.3900 c          1 T3I       0.648700
     21 O2          -6.5140    -7.1290    16.5720 o          1 T3I      -0.537100
     22 N1          -5.2240    -6.2850    14.9360 ns         1 T3I      -0.612300
     23 S           -4.2690    -5.2890    15.8500 s6         1 T3I       1.340900
     24 O1          -3.4160    -6.0970    16.7250 o          1 T3I      -0.535000
     25 C1          -2.3510    -5.5310    13.9600 c3         1 T3I       0.190100
     26 H1          -4.4440    -2.8490    14.2880 h1         1 T3I       0.053867
     27 H2          -3.1920    -3.1560    13.0780 h1         1 T3I       0.053867
     28 H3          -4.6590    -4.1550    13.1000 h1         1 T3I       0.053867
     29 H4          -7.5100   -14.0990    16.4900 ha         1 T3I       0.131000
     30 H5          -6.7020   -11.9190    15.6180 ha         1 T3I       0.123000
     31 H6         -11.2360   -13.5750    14.3820 ha         1 T3I       0.131000
     32 H7         -10.4480   -11.3860    13.5180 ha         1 T3I       0.123000
     33 H8          -7.2440    -9.5060    15.8690 ha         1 T3I       0.136000
     34 H9          -7.8070    -7.6580    10.2260 hn         1 T3I       0.351000
     35 H10         -8.9340    -9.8090     9.3060 h4         1 T3I       0.216000
     36 H11         -9.1210   -11.4530    11.4620 ha         1 T3I       0.213000
     37 H12         -7.3640    -5.9910    11.5400 hc         1 T3I       0.045033
     38 H13         -6.9420    -5.4330    13.1400 hc         1 T3I       0.045033
     39 H14         -5.7070    -6.2000    12.1080 hc         1 T3I       0.045033
     40 H15         -4.9470    -6.3190    13.9740 hn         1 T3I       0.322500
     41 H16         -1.7530    -6.1100    14.6770 h1         1 T3I       0.053867
     42 H17         -2.9100    -6.2360    13.3320 h1         1 T3I       0.053867
     43 H18         -1.6490    -4.9880    13.3130 h1         1 T3I       0.053867
     44 Cl          -9.9890   -15.5230    16.1050 cl         1 T3I      -0.212000
@<TRIPOS>BOND
     1     1     2 1   
     2     1    23 1   
     3     1    25 1   
     4     2    26 1   
     5     2    27 1   
     6     2    28 1   
     7     3    23 2   
     8     4     5 ar  
     9     4     7 ar  
    10     4    44 1   
    11     5     6 ar  
    12     5    29 1   
    13     6     9 ar  
    14     6    30 1   
    15     7     8 ar  
    16     7    31 1   
    17     8     9 ar  
    18     8    32 1   
    19     9    10 1   
    20    10    11 ar  
    21    10    12 ar  
    22    11    19 ar  
    23    11    33 1   
    24    12    13 ar  
    25    12    16 1   
    26    13    14 1   
    27    13    17 ar  
    28    14    15 1   
    29    14    34 1   
    30    15    16 2   
    31    15    35 1   
    32    16    36 1   
    33    17    18 1   
    34    17    19 ar  
    35    18    37 1   
    36    18    38 1   
    37    18    39 1   
    38    19    20 1   
    39    20    21 2   
    40    20    22 1   
    41    22    23 1   
    42    22    40 1   
    43    23    24 2   
    44    25    41 1   
    45    25    42 1   
    46    25    43 1   
@<TRIPOS>SUBSTRUCTURE
     1 T3I         1 TEMP              0 ****  ****    0 ROOT
