@<TRIPOS>MOLECULE
T3I
   44    46     1     0     0
SMALL
abcg2


@<TRIPOS>ATOM
      1 N           -3.2510    -4.7720    14.6960 n3         1 T3I      -0.787500
      2 C           -3.7740    -3.8150    13.7110 c3         1 T3I       0.190100
      3 O           -5.1300    -4.3670    16.2790 o          1 T3I      -0.535000
      4 C9          -9.2090   -13.9030    15.5550 ca         1 T3I       0.127000
      5 C8          -7.9860   -13.3450    15.8990 ca         1 T3I      -0.103500
      6 C7          -7.6270   -12.1200    15.3550 ca         1 T3I      -0.089000
      7 C10        -10.0720   -13.2570    14.6810 ca         1 T3I      -0.103500
      8 C11         -9.6990   -12.0320    14.1460 ca         1 T3I      -0.089000
      9 C6          -8.4730   -11.4400    14.4700 cp         1 T3I      -0.030000
     10 C5          -8.0850   -10.1250    13.9190 cp         1 T3I       0.004000
     11 C4          -7.4690    -9.1810    14.7220 ca         1 T3I      -0.084000
     12 C12         -8.3120    -9.7710    12.5700 ca         1 T3I      -0.058800
     13 C15         -7.9200    -8.4790    12.1210 ca         1 T3I      -0.062200
     14 N2          -8.2500    -8.3950    10.7880 na         1 T3I      -0.229700
     15 C14         -8.8040    -9.5800    10.3790 cc         1 T3I      -0.149100
     16 C13         -8.8640   -10.4500    11.4370 cd         1 T3I      -0.243200
     17 C16         -7.2980    -7.5190    12.9260 ca         1 T3I      -0.050300
     18 C17         -6.9770    -6.1640    12.3540 c3         1 T3I      -0.049800
     19 C3          -7.0630    -7.9160    14.2480 ca         1 T3I      -0.140600
     20 C2          -6.3800    -7.0580    15.2550 c          1 T3I       0.648700
     21 O2          -6.7400    -6.9720    16.4180 o          1 T3I      -0.537100
     22 N1          -5.2590    -6.3930    14.7960 ns         1 T3I      -0.612300
     23 S           -4.2890    -5.4070    15.7590 s6         1 T3I       1.340900
     24 O1          -3.5600    -6.2390    16.6770 o          1 T3I      -0.535000
     25 C1          -2.1130    -5.5800    14.2390 c3         1 T3I       0.190100
     26 H1          -4.5790    -3.2350    14.1500 h1         1 T3I       0.053867
     27 H2          -2.9610    -3.1450    13.4350 h1         1 T3I       0.053867
     28 H3          -4.1360    -4.3290    12.8160 h1         1 T3I       0.053867
     29 H4          -7.3190   -13.8630    16.5750 ha         1 T3I       0.131000
     30 H5          -6.6660   -11.6920    15.6120 ha         1 T3I       0.123000
     31 H6         -11.0260   -13.7000    14.4280 ha         1 T3I       0.131000
     32 H7         -10.3840   -11.5210    13.4830 ha         1 T3I       0.123000
     33 H8          -7.2890    -9.4060    15.7640 ha         1 T3I       0.136000
     34 H9          -8.0660    -7.6110    10.1840 hn         1 T3I       0.351000
     35 H10         -9.1130    -9.7130     9.3550 h4         1 T3I       0.216000
     36 H11         -9.2540   -11.4520    11.4010 ha         1 T3I       0.213000
     37 H12         -7.7390    -5.8680    11.6320 hc         1 T3I       0.045033
     38 H13         -6.9320    -5.3960    13.1220 hc         1 T3I       0.045033
     39 H14         -6.0170    -6.1670    11.8300 hc         1 T3I       0.045033
     40 H15         -4.8670    -6.6580    13.9020 hn         1 T3I       0.322500
     41 H16         -1.7520    -6.2020    15.0510 h1         1 T3I       0.053867
     42 H17         -2.3860    -6.2060    13.3840 h1         1 T3I       0.053867
     43 H18         -1.3240    -4.8920    13.9370 h1         1 T3I       0.053867
     44 CL          -9.6700   -15.4510    16.2330 cl         1 T3I      -0.212000
@<TRIPOS>BOND
     1     1     2 1   
     2     1    23 1   
     3     1    25 1   
     4     2    26 1   
     5     2    27 1   
     6     2    28 1   
     7     3    23 2   
     8     4     5 ar  
     9     4     7 ar  
    10     4    44 1   
    11     5     6 ar  
    12     5    29 1   
    13     6     9 ar  
    14     6    30 1   
    15     7     8 ar  
    16     7    31 1   
    17     8     9 ar  
    18     8    32 1   
    19     9    10 1   
    20    10    11 ar  
    21    10    12 ar  
    22    11    19 ar  
    23    11    33 1   
    24    12    13 ar  
    25    12    16 1   
    26    13    14 1   
    27    13    17 ar  
    28    14    15 1   
    29    14    34 1   
    30    15    16 2   
    31    15    35 1   
    32    16    36 1   
    33    17    18 1   
    34    17    19 ar  
    35    18    37 1   
    36    18    38 1   
    37    18    39 1   
    38    19    20 1   
    39    20    21 2   
    40    20    22 1   
    41    22    23 1   
    42    22    40 1   
    43    23    24 2   
    44    25    41 1   
    45    25    42 1   
    46    25    43 1   
@<TRIPOS>SUBSTRUCTURE
     1 T3I         1 TEMP              0 ****  ****    0 ROOT
