@<TRIPOS>MOLECULE
T3J
   30    31     1     0     0
SMALL
abcg2


@<TRIPOS>ATOM
      1 C10          1.2180    -0.1530     0.3440 ca         1 T3J      -0.102300
      2 C13          3.8990     0.3160    -0.1380 ca         1 T3J       0.177000
      3 C15          3.2440    -0.6510    -0.8770 ca         1 T3J      -0.155500
      4 C17         -1.0610     0.4060    -0.4790 c6         1 T3J       0.061000
      5 C02         -3.3860     1.0870    -0.1460 c          1 T3J       0.610100
      6 C03         -4.8270     0.6630     0.0150 c3         1 T3J      -0.176100
      7 C06         -2.7500    -1.3140    -0.3700 c6         1 T3J       0.065000
      8 C07         -1.9090    -2.0140     0.6830 c6         1 T3J       0.138600
      9 C09         -0.2530    -0.3580     0.5720 c6         1 T3J       0.198600
     10 C11          1.9100     0.8100     1.0690 ca         1 T3J      -0.064000
     11 C12          3.2560     1.0560     0.8340 ca         1 T3J      -0.155500
     12 C16          1.8980    -0.8790    -0.6310 ca         1 T3J      -0.064000
     13 F14          5.2030     0.5390    -0.3700 f          1 T3J      -0.179000
     14 N05         -2.4720     0.1090    -0.3370 n          1 T3J      -0.419800
     15 O01         -3.0700     2.2700    -0.1070 o          1 T3J      -0.601100
     16 O08         -0.5350    -1.7400     0.5140 os         1 T3J      -0.446000
     17 H151         3.7750    -1.2170    -1.6320 ha         1 T3J       0.133000
     18 H171        -0.8960     1.4750    -0.3680 h1         1 T3J       0.072700
     19 H172        -0.7240     0.1150    -1.4810 h1         1 T3J       0.072700
     20 H031        -5.1810     0.0910    -0.8430 hc         1 T3J       0.061033
     21 H1          -4.9670     0.0420     0.9020 hc         1 T3J       0.061033
     22 H032        -5.4470     1.5490     0.1180 hc         1 T3J       0.061033
     23 H061        -2.5100    -1.7080    -1.3630 h1         1 T3J       0.057200
     24 H062        -3.8010    -1.5150    -0.1820 h1         1 T3J       0.057200
     25 H071        -2.2450    -1.7020     1.6810 h1         1 T3J       0.054200
     26 H072        -2.0340    -3.0950     0.6050 h1         1 T3J       0.054200
     27 H091        -0.5270     0.0390     1.5610 h1         1 T3J       0.050700
     28 H111         1.3970     1.3810     1.8340 ha         1 T3J       0.123000
     29 H121         3.7930     1.8050     1.4000 ha         1 T3J       0.133000
     30 H161         1.3830    -1.6350    -1.2090 ha         1 T3J       0.123000
@<TRIPOS>BOND
     1     1     9 1   
     2     1    10 ar  
     3     1    12 ar  
     4     2     3 ar  
     5     2    11 ar  
     6     2    13 1   
     7     3    12 ar  
     8     3    17 1   
     9     4     9 1   
    10     4    14 1   
    11     4    18 1   
    12     4    19 1   
    13     5     6 1   
    14     5    14 1   
    15     5    15 2   
    16     6    20 1   
    17     6    21 1   
    18     6    22 1   
    19     7     8 1   
    20     7    14 1   
    21     7    23 1   
    22     7    24 1   
    23     8    16 1   
    24     8    25 1   
    25     8    26 1   
    26     9    16 1   
    27     9    27 1   
    28    10    11 ar  
    29    10    28 1   
    30    11    29 1   
    31    12    30 1   
@<TRIPOS>SUBSTRUCTURE
     1 T3J         1 TEMP              0 ****  ****    0 ROOT
