@<TRIPOS>MOLECULE
T3J
   30    31     1     0     0
SMALL
No Charge or Current Charge


@<TRIPOS>ATOM
      1 C10          1.3110    -0.1470     0.3510 ca         1 T3J      -0.102300
      2 C13          4.0160     0.3410    -0.2620 ca         1 T3J       0.177000
      3 C15          3.1690    -0.2100    -1.2350 ca         1 T3J      -0.155500
      4 C17         -1.1200     0.5400    -0.0870 c6         1 T3J       0.061000
      5 C02         -3.5420     1.0860    -0.4940 c          1 T3J       0.610100
      6 C03         -5.0190     0.6860    -0.4540 c3         1 T3J      -0.176100
      7 C06         -2.8630    -1.3000     0.0540 c6         1 T3J       0.065000
      8 C07         -1.8000    -2.1400     0.8090 c6         1 T3J       0.138600
      9 C09         -0.1610    -0.4050     0.6880 c6         1 T3J       0.198600
     10 C11          2.1710     0.4060     1.3220 ca         1 T3J      -0.064000
     11 C12          3.5220     0.6500     1.0140 ca         1 T3J      -0.155500
     12 C16          1.8180    -0.4550    -0.9300 ca         1 T3J      -0.064000
     13 F14          5.3130     0.5760    -0.5560 f          1 T3J      -0.179000
     14 N05         -2.5730     0.1700    -0.0200 n          1 T3J      -0.419800
     15 O01         -3.2170     2.2010    -0.8810 o          1 T3J      -0.601100
     16 O08         -0.4720    -1.7780     0.3910 os         1 T3J      -0.446000
     17 H151         3.5590    -0.4480    -2.2210 ha         1 T3J       0.133000
     18 H171        -0.9850     1.5590     0.3030 h1         1 T3J       0.072700
     19 H172        -0.8200     0.5620    -1.1440 h1         1 T3J       0.072700
     20 H031        -5.1690    -0.2090    -1.0690 hc         1 T3J       0.061033
     21 H1          -5.2700     0.3340     0.5520 hc         1 T3J       0.061033
     22 H032        -5.6810     1.4990    -0.7720 hc         1 T3J       0.061033
     23 H061        -2.9510    -1.6890    -0.9700 h1         1 T3J       0.057200
     24 H062        -3.8300    -1.4690     0.5480 h1         1 T3J       0.057200
     25 H071        -1.8940    -1.9740     1.8930 h1         1 T3J       0.054200
     26 H072        -1.9620    -3.2090     0.6160 h1         1 T3J       0.054200
     27 H091        -0.3110    -0.2460     1.7660 h1         1 T3J       0.050700
     28 H111         1.7950     0.6490     2.3140 ha         1 T3J       0.123000
     29 H121         4.1850     1.0770     1.7620 ha         1 T3J       0.133000
     30 H161         1.1650    -0.8870    -1.6870 ha         1 T3J       0.123000
@<TRIPOS>BOND
     1     1     9 1   
     2     1    10 ar  
     3     1    12 ar  
     4     2     3 ar  
     5     2    11 ar  
     6     2    13 1   
     7     3    12 ar  
     8     3    17 1   
     9     4     9 1   
    10     4    14 1   
    11     4    18 1   
    12     4    19 1   
    13     5     6 1   
    14     5    14 1   
    15     5    15 2   
    16     6    20 1   
    17     6    21 1   
    18     6    22 1   
    19     7     8 1   
    20     7    14 1   
    21     7    23 1   
    22     7    24 1   
    23     8    16 1   
    24     8    25 1   
    25     8    26 1   
    26     9    16 1   
    27     9    27 1   
    28    10    11 ar  
    29    10    28 1   
    30    11    29 1   
    31    12    30 1   
@<TRIPOS>SUBSTRUCTURE
     1 T3J         1 TEMP              0 ****  ****    0 ROOT
