@<TRIPOS>MOLECULE
T3K
   58    60     1     0     0
SMALL
No Charge or Current Charge


@<TRIPOS>ATOM
      1 C13         26.1690    29.1380    27.9070 c          1 T3K       0.619100
      2 C17         28.6180    31.2890    25.7390 c6         1 T3K       0.136100
      3 C20         26.9450    28.9220    25.5250 c6         1 T3K       0.061500
      4 C21         30.6130    31.8720    28.7060 ca         1 T3K      -0.148000
      5 C22         31.1960    32.8680    27.8950 ca         1 T3K       0.116100
      6 C24         31.1980    34.6600    29.3920 c5         1 T3K       0.166300
      7 C26         31.7400    36.8800    28.5600 c5         1 T3K      -0.073400
      8 C28         32.7390    34.8240    29.5260 c5         1 T3K      -0.093400
      9 C01         33.5400    33.2140    24.9880 c3         1 T3K       0.144900
     10 C03         32.0880    32.5020    26.8610 ca         1 T3K       0.122100
     11 C04         32.4130    31.1400    26.6790 ca         1 T3K      -0.180000
     12 C05         31.8450    30.1570    27.5060 ca         1 T3K      -0.091000
     13 C06         30.9470    30.5080    28.5380 ca         1 T3K      -0.140900
     14 C07         30.2670    29.4410    29.3520 ce         1 T3K       0.438900
     15 C08         31.0340    28.1700    29.6830 c3         1 T3K      -0.160400
     16 C11         26.9030    28.9260    30.3300 c3         1 T3K       0.176600
     17 C12         26.1810    29.8120    29.2880 c3         1 T3K      -0.185400
     18 C16         27.5770    30.9950    26.8520 c6         1 T3K       0.061500
     19 C19         28.0400    29.3350    24.5100 c6         1 T3K       0.136100
     20 C25         30.7580    36.1390    29.5160 c5         1 T3K      -0.093400
     21 C27         33.0600    36.0440    28.6100 c5         1 T3K      -0.073400
     22 N09         29.0910    29.6820    29.8510 n2         1 T3K      -0.363700
     23 N15         27.0130    29.6020    26.8620 n          1 T3K      -0.409800
     24 O10         28.2170    28.5690    29.8500 os         1 T3K      -0.302000
     25 O14         25.4300    28.1790    27.7200 o          1 T3K      -0.614100
     26 O18         28.1790    30.7650    24.4750 os         1 T3K      -0.446000
     27 O23         30.8490    34.1990    28.0530 os         1 T3K      -0.328100
     28 H1          28.7770    32.3730    25.6500 h1         1 T3K       0.053450
     29 H2          29.5800    30.8280    25.9990 h1         1 T3K       0.053450
     30 H3          27.0010    27.8340    25.6670 h1         1 T3K       0.062450
     31 H4          25.9620    29.1350    25.0790 h1         1 T3K       0.062450
     32 H5          29.8850    32.1590    29.4610 ha         1 T3K       0.135000
     33 H6          30.7500    34.0270    30.1690 h1         1 T3K       0.050700
     34 H7          31.3430    36.9110    27.5380 hc         1 T3K       0.045700
     35 H8          31.8970    37.9200    28.8670 hc         1 T3K       0.045700
     36 H9          33.0100    35.0380    30.5670 hc         1 T3K       0.053950
     37 H10         33.2970    33.9260    29.2400 hc         1 T3K       0.053950
     38 H11         33.8310    34.1440    24.4840 h1         1 T3K       0.040700
     39 H12         34.4500    32.7390    25.3770 h1         1 T3K       0.040700
     40 H13         33.0850    32.5510    24.2420 h1         1 T3K       0.040700
     41 H14         33.0920    30.8230    25.8930 ha         1 T3K       0.121000
     42 H15         32.0890    29.1140    27.3190 ha         1 T3K       0.116000
     43 H16         30.9220    27.9120    30.7420 hc         1 T3K       0.057367
     44 H17         30.6640    27.3250    29.0920 hc         1 T3K       0.057367
     45 H18         32.1070    28.2740    29.4930 hc         1 T3K       0.057367
     46 H19         26.9620    29.4500    31.2940 h1         1 T3K       0.062700
     47 H20         26.3110    28.0150    30.4860 h1         1 T3K       0.062700
     48 H21         25.1440    29.9250    29.6230 hc         1 T3K       0.069200
     49 H22         26.6490    30.7980    29.2800 hc         1 T3K       0.069200
     50 H23         28.0720    31.2060    27.8070 h1         1 T3K       0.062450
     51 H24         26.7460    31.7080    26.7520 h1         1 T3K       0.062450
     52 H25         27.7760    28.9710    23.5060 h1         1 T3K       0.053450
     53 H26         29.0020    28.8840    24.7930 h1         1 T3K       0.053450
     54 H27         29.7090    36.2880    29.2350 hc         1 T3K       0.053950
     55 H28         30.8670    36.4930    30.5470 hc         1 T3K       0.053950
     56 H29         33.9010    36.6280    29.0020 hc         1 T3K       0.045700
     57 H30         33.3480    35.7170    27.6040 hc         1 T3K       0.045700
     58 O02         32.6160    33.4950    26.0530 os         1 T3K      -0.318100
@<TRIPOS>BOND
     1     1    17 1   
     2     1    23 1   
     3     1    25 2   
     4     2    18 1   
     5     2    26 1   
     6     2    28 1   
     7     2    29 1   
     8     3    19 1   
     9     3    23 1   
    10     3    30 1   
    11     3    31 1   
    12     4     5 ar  
    13     4    13 ar  
    14     4    32 1   
    15     5    10 ar  
    16     5    27 1   
    17     6     8 1   
    18     6    20 1   
    19     6    27 1   
    20     6    33 1   
    21     7    20 1   
    22     7    21 1   
    23     7    34 1   
    24     7    35 1   
    25     8    21 1   
    26     8    36 1   
    27     8    37 1   
    28     9    38 1   
    29     9    39 1   
    30     9    40 1   
    31     9    58 1   
    32    10    11 ar  
    33    10    58 1   
    34    11    12 ar  
    35    11    41 1   
    36    12    13 ar  
    37    12    42 1   
    38    13    14 1   
    39    14    15 1   
    40    14    22 2   
    41    15    43 1   
    42    15    44 1   
    43    15    45 1   
    44    16    17 1   
    45    16    24 1   
    46    16    46 1   
    47    16    47 1   
    48    17    48 1   
    49    17    49 1   
    50    18    23 1   
    51    18    50 1   
    52    18    51 1   
    53    19    26 1   
    54    19    52 1   
    55    19    53 1   
    56    20    54 1   
    57    20    55 1   
    58    21    56 1   
    59    21    57 1   
    60    22    24 1   
@<TRIPOS>SUBSTRUCTURE
     1 T3K         1 TEMP              0 ****  ****    0 ROOT
