@<TRIPOS>MOLECULE
T3K
   58    60     1     0     0
SMALL
bcc


@<TRIPOS>ATOM
      1 C13         26.2450    29.1480    28.4990 c          1 T3K       0.686100
      2 C17         28.2180    29.9220    25.5690 c6         1 T3K       0.112900
      3 C20         25.9710    28.3680    26.2100 c6         1 T3K       0.061500
      4 C21         31.1020    32.2320    28.1730 ca         1 T3K      -0.166000
      5 C22         31.7740    33.2670    27.5550 ca         1 T3K       0.116100
      6 C24         30.9170    34.9560    29.0270 c5         1 T3K       0.143100
      7 C26         32.2680    36.8970    29.5350 c5         1 T3K      -0.073400
      8 C28         31.6670    34.6430    30.3180 c5         1 T3K      -0.093400
      9 C01         34.1320    33.8290    24.8430 c3         1 T3K       0.121700
     10 C03         32.6450    32.9830    26.4770 ca         1 T3K       0.122100
     11 C04         32.8070    31.6720    26.0660 ca         1 T3K      -0.198000
     12 C05         32.1310    30.6360    26.7080 ca         1 T3K      -0.109000
     13 C06         31.2730    30.9010    27.7630 ca         1 T3K      -0.140900
     14 C07         30.5350    29.8110    28.4340 ce         1 T3K       0.438900
     15 C08         30.9840    28.3950    28.2320 c3         1 T3K      -0.160400
     16 C11         27.7420    29.6590    30.4360 c3         1 T3K       0.153400
     17 C12         26.6840    30.2090    29.4890 c3         1 T3K      -0.185400
     18 C16         27.1760    30.4360    26.5520 c6         1 T3K       0.061500
     19 C19         27.0680    27.9350    25.2550 c6         1 T3K       0.112900
     20 C25         30.8830    36.4760    29.0230 c5         1 T3K      -0.093400
     21 C27         32.7700    35.7110    30.3920 c5         1 T3K      -0.073400
     22 N09         29.5390    30.1740    29.1430 n2         1 T3K      -0.462200
     23 N15         26.4920    29.3190    27.1800 n          1 T3K      -0.476800
     24 O10         28.8740    29.1520    29.7550 os         1 T3K      -0.180300
     25 O14         25.6730    28.1530    28.9270 o          1 T3K      -0.614100
     26 O18         27.6660    29.0420    24.6200 os         1 T3K      -0.399600
     27 O23         31.6700    34.5670    27.8790 os         1 T3K      -0.304900
     28 H1          28.6540    30.7640    25.0290 h1         1 T3K       0.053450
     29 H2          29.0210    29.4260    26.1290 h1         1 T3K       0.053450
     30 H3          25.5660    27.5010    26.7240 h1         1 T3K       0.062450
     31 H4          25.1570    28.8400    25.6490 h1         1 T3K       0.062450
     32 H5          30.4330    32.4300    28.9990 ha         1 T3K       0.153000
     33 H6          29.9150    34.5170    28.9860 h1         1 T3K       0.050700
     34 H7          32.9470    37.0830    28.7020 hc         1 T3K       0.045700
     35 H8          32.2160    37.8230    30.1070 hc         1 T3K       0.045700
     36 H9          30.9650    34.7560    31.1480 hc         1 T3K       0.053950
     37 H10         32.0530    33.6240    30.3680 hc         1 T3K       0.053950
     38 H11         34.5160    34.8040    24.5550 h1         1 T3K       0.040700
     39 H12         34.9740    33.1860    25.1160 h1         1 T3K       0.040700
     40 H13         33.6160    33.3870    23.9870 h1         1 T3K       0.040700
     41 H14         33.4640    31.4290    25.2420 ha         1 T3K       0.139000
     42 H15         32.2870    29.6260    26.3550 ha         1 T3K       0.134000
     43 H16         30.5250    27.7090    28.9360 hc         1 T3K       0.057367
     44 H17         30.7330    28.0540    27.2250 hc         1 T3K       0.057367
     45 H18         32.0660    28.3210    28.3340 hc         1 T3K       0.057367
     46 H19         28.0340    30.4320    31.1530 h1         1 T3K       0.062700
     47 H20         27.3480    28.8110    30.9950 h1         1 T3K       0.062700
     48 H21         25.8050    30.4610    30.0880 hc         1 T3K       0.069200
     49 H22         27.0250    31.1400    29.0440 hc         1 T3K       0.069200
     50 H23         27.6850    31.0560    27.2830 h1         1 T3K       0.062450
     51 H24         26.4470    31.0650    26.0280 h1         1 T3K       0.062450
     52 H25         26.6480    27.2970    24.4760 h1         1 T3K       0.053450
     53 H26         27.8200    27.3510    25.8030 h1         1 T3K       0.053450
     54 H27         30.6300    36.8900    28.0460 hc         1 T3K       0.053950
     55 H28         30.1050    36.7950    29.7190 hc         1 T3K       0.053950
     56 H29         32.9640    36.0040    31.4230 hc         1 T3K       0.045700
     57 H30         33.7090    35.3200    29.9970 hc         1 T3K       0.045700
     58 O02         33.2600    34.0460    25.9320 os         1 T3K      -0.294900
@<TRIPOS>BOND
     1     1    17 1   
     2     1    23 1   
     3     1    25 2   
     4     2    18 1   
     5     2    26 1   
     6     2    28 1   
     7     2    29 1   
     8     3    19 1   
     9     3    23 1   
    10     3    30 1   
    11     3    31 1   
    12     4     5 ar  
    13     4    13 ar  
    14     4    32 1   
    15     5    10 ar  
    16     5    27 1   
    17     6     8 1   
    18     6    20 1   
    19     6    27 1   
    20     6    33 1   
    21     7    20 1   
    22     7    21 1   
    23     7    34 1   
    24     7    35 1   
    25     8    21 1   
    26     8    36 1   
    27     8    37 1   
    28     9    38 1   
    29     9    39 1   
    30     9    40 1   
    31     9    58 1   
    32    10    11 ar  
    33    10    58 1   
    34    11    12 ar  
    35    11    41 1   
    36    12    13 ar  
    37    12    42 1   
    38    13    14 1   
    39    14    15 1   
    40    14    22 2   
    41    15    43 1   
    42    15    44 1   
    43    15    45 1   
    44    16    17 1   
    45    16    24 1   
    46    16    46 1   
    47    16    47 1   
    48    17    48 1   
    49    17    49 1   
    50    18    23 1   
    51    18    50 1   
    52    18    51 1   
    53    19    26 1   
    54    19    52 1   
    55    19    53 1   
    56    20    54 1   
    57    20    55 1   
    58    21    56 1   
    59    21    57 1   
    60    22    24 1   
@<TRIPOS>SUBSTRUCTURE
     1 T3K         1 TEMP              0 ****  ****    0 ROOT
