@<TRIPOS>MOLECULE
T3M
   46    48     1     0     0
SMALL
bcc


@<TRIPOS>ATOM
      1 O26          7.1520     1.2510    -1.4930 o          1 T3M      -0.820800
      2 C24          6.2870     1.7370    -0.7390 c          1 T3M       0.921200
      3 O25          6.3350     2.8380    -0.1580 o          1 T3M      -0.820800
      4 C23          5.0370     0.8970    -0.5060 ca         1 T3M      -0.113600
      5 C22          4.0060     1.3570     0.3100 ca         1 T3M      -0.115000
      6 C21          2.8670     0.5980     0.5200 ca         1 T3M      -0.134000
      7 C27          4.8920    -0.3500    -1.1070 ca         1 T3M      -0.115000
      8 C28          3.7600    -1.1210    -0.8920 ca         1 T3M      -0.134000
      9 C20          2.7320    -0.6590    -0.0700 cp         1 T3M      -0.197500
     10 C19          1.4930    -1.4350     0.1440 cp         1 T3M       0.354500
     11 N14          0.3580    -0.7740     0.0920 nb         1 T3M      -0.623000
     12 C17          1.4870    -2.8290     0.4300 ca         1 T3M       0.559900
     13 N18          2.6220    -3.5650     0.5270 nv         1 T3M      -0.934500
     14 N16          0.3340    -3.4620     0.6050 nb         1 T3M      -0.744000
     15 C15         -0.7910    -2.7710     0.5160 ca         1 T3M       0.336900
     16 C13         -0.8050    -1.4050     0.2650 cp         1 T3M       0.284500
     17 C12         -2.0410    -0.6040     0.1990 cp         1 T3M      -0.040500
     18 C4          -3.2750    -1.2110    -0.0260 ca         1 T3M      -0.228500
     19 C11         -1.9640     0.7770     0.3670 ca         1 T3M      -0.228500
     20 C8          -3.1200     1.5490     0.3210 ca         1 T3M       0.150100
     21 O9          -3.1460     2.8840     0.4770 os         1 T3M      -0.308900
     22 C10         -1.9240     3.5590     0.7000 c3         1 T3M       0.122700
     23 C5          -4.3620     0.9440     0.1120 ca         1 T3M       0.016100
     24 O6          -5.4950     1.6940     0.1000 os         1 T3M      -0.308900
     25 C7          -5.8590     2.1830    -1.1840 c3         1 T3M       0.126700
     26 C3          -4.4330    -0.4390    -0.0710 ca         1 T3M       0.150100
     27 O2          -5.6630    -0.9340    -0.2860 os         1 T3M      -0.308900
     28 C1          -5.8080    -2.3300    -0.4620 c3         1 T3M       0.122700
     29 H22          4.0970     2.3250     0.7860 ha         1 T3M       0.149000
     30 H27          5.6730    -0.7220    -1.7570 ha         1 T3M       0.149000
     31 H21          2.0760     0.9770     1.1550 ha         1 T3M       0.115000
     32 H28          3.6710    -2.0770    -1.3940 ha         1 T3M       0.115000
     33 H181         3.4890    -3.0960     0.7330 hn         1 T3M       0.425300
     34 H182         2.5250    -4.4700     0.9600 hn         1 T3M       0.425300
     35 H15         -1.7050    -3.3290     0.6810 h4         1 T3M       0.014100
     36 H4          -3.3320    -2.2770    -0.1920 ha         1 T3M       0.151000
     37 H11         -0.9980     1.2280     0.5390 ha         1 T3M       0.151000
     38 H101        -1.2220     3.4220    -0.1260 h1         1 T3M       0.041033
     39 H102        -2.1670     4.6160     0.7820 h1         1 T3M       0.041033
     40 H103        -1.4420     3.2370     1.6270 h1         1 T3M       0.041033
     41 H71C        -6.7680     2.7690    -1.0580 h1         1 T3M       0.029700
     42 H72C        -5.0840     2.8250    -1.6080 h1         1 T3M       0.029700
     43 H73C        -6.0640     1.3700    -1.8850 h1         1 T3M       0.029700
     44 H11C        -5.2620    -2.6910    -1.3370 h1         1 T3M       0.041033
     45 H12C        -5.4760    -2.8880     0.4170 h1         1 T3M       0.041033
     46 H13C        -6.8690    -2.5120    -0.6120 h1         1 T3M       0.041033
@<TRIPOS>BOND
     1     1     2 1   
     2     2     3 1   
     3     2     4 1   
     4     4     5 ar  
     5     4     7 ar  
     6     5     6 ar  
     7     5    29 1   
     8     6     9 ar  
     9     6    31 1   
    10     7     8 ar  
    11     7    30 1   
    12     8     9 ar  
    13     8    32 1   
    14     9    10 1   
    15    10    11 ar  
    16    10    12 ar  
    17    11    16 ar  
    18    12    13 1   
    19    12    14 ar  
    20    13    33 1   
    21    13    34 1   
    22    14    15 ar  
    23    15    16 ar  
    24    15    35 1   
    25    16    17 1   
    26    17    18 ar  
    27    17    19 ar  
    28    18    26 ar  
    29    18    36 1   
    30    19    20 ar  
    31    19    37 1   
    32    20    21 1   
    33    20    23 ar  
    34    21    22 1   
    35    22    38 1   
    36    22    39 1   
    37    22    40 1   
    38    23    24 1   
    39    23    26 ar  
    40    24    25 1   
    41    25    41 1   
    42    25    42 1   
    43    25    43 1   
    44    26    27 1   
    45    27    28 1   
    46    28    44 1   
    47    28    45 1   
    48    28    46 1   
@<TRIPOS>SUBSTRUCTURE
     1 T3M         1 TEMP              0 ****  ****    0 ROOT
