@<TRIPOS>MOLECULE
T3M
   46    48     1     0     0
SMALL
No Charge or Current Charge


@<TRIPOS>ATOM
      1 O26          7.4180     1.0780    -1.4170 o          1 T3M      -0.715500
      2 C24          6.4830     1.6410    -0.8650 c          1 T3M       0.710600
      3 O25          6.5270     2.8130    -0.5190 o          1 T3M      -0.715500
      4 C23          5.2110     0.8480    -0.5950 ca         1 T3M      -0.113600
      5 C22          4.1010     1.4500     0.0390 ca         1 T3M      -0.097000
      6 C21          2.9280     0.7170     0.2870 ca         1 T3M      -0.116000
      7 C27          5.1060    -0.5090    -0.9770 ca         1 T3M      -0.097000
      8 C28          3.9320    -1.2400    -0.7270 ca         1 T3M      -0.116000
      9 C20          2.8170    -0.6490    -0.0810 cp         1 T3M      -0.197500
     10 C19          1.5530    -1.4280     0.1870 cp         1 T3M       0.354500
     11 N14          0.3880    -0.7360     0.0380 nb         1 T3M      -0.623000
     12 C17          1.5310    -2.8220     0.6120 ca         1 T3M       0.559900
     13 N18          2.5860    -3.6300     0.8800 nv         1 T3M      -1.044900
     14 N16          0.4110    -3.5070     0.8670 nb         1 T3M      -0.744000
     15 C15         -0.7380    -2.7970     0.6860 ca         1 T3M       0.336900
     16 C13         -0.7690    -1.4200     0.2700 cp         1 T3M       0.284500
     17 C12         -2.0640    -0.6590     0.0890 cp         1 T3M      -0.040500
     18 C4          -3.2880    -1.3300    -0.1510 ca         1 T3M      -0.210500
     19 C11         -2.1030     0.7580     0.1470 ca         1 T3M      -0.210500
     20 C8          -3.3010     1.4910    -0.0180 ca         1 T3M       0.150100
     21 O9          -3.2850     2.8750     0.0500 os         1 T3M      -0.332100
     22 C10         -2.0880     3.6430     0.2750 c3         1 T3M       0.145900
     23 C5          -4.5220     0.7890    -0.2530 ca         1 T3M       0.016100
     24 O6          -5.7680     1.3960    -0.4310 os         1 T3M      -0.332100
     25 C7          -6.0110     2.8140    -0.4020 c3         1 T3M       0.149900
     26 C3          -4.4990    -0.6240    -0.3180 ca         1 T3M       0.150100
     27 O2          -5.6940    -1.2870    -0.5540 os         1 T3M      -0.332100
     28 C1          -5.7910    -2.7200    -0.6360 c3         1 T3M       0.145900
     29 H22          4.1430     2.4940     0.3440 ha         1 T3M       0.131000
     30 H27          5.9370    -1.0030    -1.4770 ha         1 T3M       0.131000
     31 H21          2.0950     1.2140     0.7800 ha         1 T3M       0.097000
     32 H28          3.8850    -2.2750    -1.0600 ha         1 T3M       0.097000
     33 H181         3.4760    -3.1870     1.0830 hn         1 T3M       0.480500
     34 H182         2.3670    -4.4740     1.3970 hn         1 T3M       0.480500
     35 H15         -1.6570    -3.3380     0.9000 h4         1 T3M       0.014100
     36 H4          -3.2840    -2.4120    -0.2220 ha         1 T3M       0.133000
     37 H11         -1.1710     1.2810     0.3330 ha         1 T3M       0.133000
     38 H101        -1.3530     3.4630    -0.5200 h1         1 T3M       0.041033
     39 H102        -2.3220     4.7150     0.2840 h1         1 T3M       0.041033
     40 H103        -1.6360     3.3870     1.2420 h1         1 T3M       0.041033
     41 H71C        -7.0760     3.0160    -0.5680 h1         1 T3M       0.029700
     42 H72C        -5.7380     3.2390     0.5720 h1         1 T3M       0.029700
     43 H73C        -5.4470     3.3250    -1.1920 h1         1 T3M       0.029700
     44 H11C        -5.1740    -3.1070    -1.4570 h1         1 T3M       0.041033
     45 H12C        -5.4680    -3.1880     0.3020 h1         1 T3M       0.041033
     46 H13C        -6.8300    -3.0190    -0.8240 h1         1 T3M       0.041033
@<TRIPOS>BOND
     1     1     2 1   
     2     2     3 1   
     3     2     4 1   
     4     4     5 ar  
     5     4     7 ar  
     6     5     6 ar  
     7     5    29 1   
     8     6     9 ar  
     9     6    31 1   
    10     7     8 ar  
    11     7    30 1   
    12     8     9 ar  
    13     8    32 1   
    14     9    10 1   
    15    10    11 ar  
    16    10    12 ar  
    17    11    16 ar  
    18    12    13 1   
    19    12    14 ar  
    20    13    33 1   
    21    13    34 1   
    22    14    15 ar  
    23    15    16 ar  
    24    15    35 1   
    25    16    17 1   
    26    17    18 ar  
    27    17    19 ar  
    28    18    26 ar  
    29    18    36 1   
    30    19    20 ar  
    31    19    37 1   
    32    20    21 1   
    33    20    23 ar  
    34    21    22 1   
    35    22    38 1   
    36    22    39 1   
    37    22    40 1   
    38    23    24 1   
    39    23    26 ar  
    40    24    25 1   
    41    25    41 1   
    42    25    42 1   
    43    25    43 1   
    44    26    27 1   
    45    27    28 1   
    46    28    44 1   
    47    28    45 1   
    48    28    46 1   
@<TRIPOS>SUBSTRUCTURE
     1 T3M         1 TEMP              0 ****  ****    0 ROOT
