@<TRIPOS>MOLECULE
T3N
   25    25     1     0     0
SMALL
No Charge or Current Charge


@<TRIPOS>ATOM
      1 C10          3.0550    -6.0690     6.9480 ca         1 T3N      -0.098500
      2 C13          7.9250    -3.1310     5.5310 c          1 T3N       0.730000
      3 C01         -1.3370    -7.4460     7.5410 c3         1 T3N      -0.181100
      4 C02          0.1750    -7.2370     7.4800 c          1 T3N       0.600100
      5 C05          1.8280    -5.4710     6.5840 ca         1 T3N      -0.116000
      6 C06          1.8460    -4.2310     5.9180 ca         1 T3N      -0.098500
      7 C07          3.0640    -3.5970     5.6180 ca         1 T3N      -0.173500
      8 C08          4.2820    -4.1920     5.9790 ca         1 T3N       0.163100
      9 C09          4.2730    -5.4340     6.6470 ca         1 T3N      -0.173500
     10 C12          6.7560    -4.0540     5.9880 c3         1 T3N      -0.000400
     11 N04          0.5560    -6.0540     6.8550 ns         1 T3N      -0.138000
     12 O03          0.9500    -8.0620     7.9510 o          1 T3N      -0.598100
     13 O11          5.4480    -3.5250     5.6590 os         1 T3N      -0.294100
     14 O14          9.0660    -3.5040     5.7710 o          1 T3N      -0.712000
     15 O15          7.6760    -2.0780     4.9560 o          1 T3N      -0.712000
     16 H1           3.0890    -7.0240     7.4630 ha         1 T3N       0.108000
     17 H2          -1.7980    -6.5780     8.0270 hc         1 T3N       0.053700
     18 H3          -1.7470    -7.3860     6.5260 hc         1 T3N       0.053700
     19 H4          -1.6170    -8.3820     8.0360 hc         1 T3N       0.053700
     20 H5           0.9110    -3.7530     5.6290 ha         1 T3N       0.108000
     21 H6           3.0640    -2.6400     5.1030 ha         1 T3N       0.126000
     22 H7           5.2000    -5.9200     6.9400 ha         1 T3N       0.126000
     23 H8           6.8990    -5.0310     5.5090 h1         1 T3N       0.018200
     24 H9           6.8460    -4.1890     7.0740 h1         1 T3N       0.018200
     25 H10         -0.2240    -5.4960     6.5290 hn         1 T3N       0.138000
@<TRIPOS>BOND
     1     1     5 ar  
     2     1     9 ar  
     3     1    16 1   
     4     2    10 1   
     5     2    14 1   
     6     2    15 1   
     7     3     4 1   
     8     3    17 1   
     9     3    18 1   
    10     3    19 1   
    11     4    11 1   
    12     4    12 2   
    13     5     6 ar  
    14     5    11 1   
    15     6     7 ar  
    16     6    20 1   
    17     7     8 ar  
    18     7    21 1   
    19     8     9 ar  
    20     8    13 1   
    21     9    22 1   
    22    10    13 1   
    23    10    23 1   
    24    10    24 1   
    25    11    25 1   
@<TRIPOS>SUBSTRUCTURE
     1 T3N         1 TEMP              0 ****  ****    0 ROOT
