@<TRIPOS>MOLECULE
T3N
   25    25     1     0     0
SMALL
bcc


@<TRIPOS>ATOM
      1 C10          3.0440    -6.1200     6.7760 ca         1 T3N      -0.116500
      2 C13          7.8180    -3.1390     5.6610 c          1 T3N       0.940600
      3 C01         -1.2300    -7.3610     7.6270 c3         1 T3N      -0.181100
      4 C02          0.2280    -6.9730     7.6350 c          1 T3N       0.667100
      5 C05          1.8400    -5.5030     6.4570 ca         1 T3N      -0.023400
      6 C06          1.8820    -4.2420     5.8560 ca         1 T3N      -0.116500
      7 C07          3.0830    -3.6190     5.5850 ca         1 T3N      -0.191500
      8 C08          4.2930    -4.2320     5.9190 ca         1 T3N       0.163100
      9 C09          4.2560    -5.4900     6.5150 ca         1 T3N      -0.191500
     10 C12          6.6610    -4.0930     6.0160 c3         1 T3N      -0.023600
     11 N04          0.5800    -6.0850     6.6730 ns         1 T3N      -0.464100
     12 O03          1.0120    -7.4390     8.4440 o          1 T3N      -0.598100
     13 O11          5.4130    -3.5470     5.6310 os         1 T3N      -0.270900
     14 O14          8.9320    -3.5630     6.0250 o          1 T3N      -0.817300
     15 O15          7.5530    -2.0830     5.0690 o          1 T3N      -0.817300
     16 H1           3.0610    -7.1010     7.2250 ha         1 T3N       0.126000
     17 H2          -1.6490    -7.2050     8.6210 hc         1 T3N       0.053700
     18 H3          -1.8320    -6.8110     6.9070 hc         1 T3N       0.053700
     19 H4          -1.3180    -8.4250     7.4040 hc         1 T3N       0.053700
     20 H5           0.9570    -3.7400     5.5980 ha         1 T3N       0.126000
     21 H6           3.0900    -2.6410     5.1200 ha         1 T3N       0.144000
     22 H7           5.1660    -6.0100     6.7820 ha         1 T3N       0.144000
     23 H8           6.8320    -5.0560     5.5180 h1         1 T3N       0.018200
     24 H9           6.6790    -4.2870     7.0950 h1         1 T3N       0.018200
     25 H10         -0.1670    -5.7180     6.1040 hn         1 T3N       0.304500
@<TRIPOS>BOND
     1     1     5 ar  
     2     1     9 ar  
     3     1    16 1   
     4     2    10 1   
     5     2    14 1   
     6     2    15 1   
     7     3     4 1   
     8     3    17 1   
     9     3    18 1   
    10     3    19 1   
    11     4    11 1   
    12     4    12 2   
    13     5     6 ar  
    14     5    11 1   
    15     6     7 ar  
    16     6    20 1   
    17     7     8 ar  
    18     7    21 1   
    19     8     9 ar  
    20     8    13 1   
    21     9    22 1   
    22    10    13 1   
    23    10    23 1   
    24    10    24 1   
    25    11    25 1   
@<TRIPOS>SUBSTRUCTURE
     1 T3N         1 TEMP              0 ****  ****    0 ROOT
