@<TRIPOS>MOLECULE
T3O
   41    43     1     0     0
SMALL
No Charge or Current Charge


@<TRIPOS>ATOM
      1 CAN          1.3700     0.4720     1.6250 c6         1 T3O      -0.071400
      2 CAD          1.1650     1.3390     0.3510 c6         1 T3O      -0.048500
      3 CAI          2.5310     1.6690    -0.2620 c2         1 T3O      -0.118400
      4 CAL          2.5960     2.9550    -1.0670 c3         1 T3O      -0.049900
      5 CAO          3.5890     0.8550    -0.0860 c2         1 T3O      -0.203200
      6 CAM          3.5450    -0.4230     0.7490 c6         1 T3O      -0.032200
      7 CAP          2.1020    -0.8300     1.2030 c6         1 T3O      -0.078700
      8 CAK          1.2430    -1.5970     0.1200 c6         1 T3O       0.195000
      9 CAF          2.0080    -2.7970    -0.5170 c3         1 T3O      -0.098600
     10 CAQ         -0.0670    -2.2080     0.7240 c3         1 T3O      -0.098600
     11 OAR          0.9150    -0.7220    -0.9960 os         1 T3O      -0.457000
     12 CAB          0.2970     0.5650    -0.6970 c6         1 T3O       0.235600
     13 CAA         -1.2200     0.4120    -0.4300 ca         1 T3O      -0.145300
     14 CAC         -1.9860    -0.3530    -1.3360 ca         1 T3O      -0.061500
     15 CAH         -3.3700    -0.5160    -1.1500 ca         1 T3O      -0.180000
     16 CAJ         -4.0070     0.0940    -0.0600 ca         1 T3O       0.138100
     17 OAS         -5.3470    -0.0580     0.1270 oh         1 T3O      -0.535100
     18 CAG         -3.2640     0.8710     0.8370 ca         1 T3O      -0.180000
     19 CAE         -1.8790     1.0370     0.6560 ca         1 T3O      -0.061500
     20 HAN1         0.4160     0.2550     2.1200 hc         1 T3O       0.048200
     21 HAN2         1.9680     1.0240     2.3630 hc         1 T3O       0.048200
     22 HAD          0.6740     2.2800     0.6310 hc         1 T3O       0.059700
     23 HAL1         3.6000     3.1260    -1.4750 hc         1 T3O       0.038700
     24 HAL2         1.8980     2.9320    -1.9120 hc         1 T3O       0.038700
     25 HAL3         2.3420     3.8220    -0.4450 hc         1 T3O       0.038700
     26 HAO          4.5560     1.0980    -0.5310 ha         1 T3O       0.170000
     27 HAM1         4.0530    -1.2380     0.2210 hc         1 T3O       0.047200
     28 HAM2         4.1540    -0.2500     1.6480 hc         1 T3O       0.047200
     29 HAP          2.2000    -1.4820     2.0820 hc         1 T3O       0.050700
     30 HAF1         2.8170    -2.4610    -1.1760 hc         1 T3O       0.041200
     31 HAF2         2.4450    -3.4450     0.2520 hc         1 T3O       0.041200
     32 HAF3         1.3430    -3.4160    -1.1310 hc         1 T3O       0.041200
     33 HAQ1        -0.7120    -2.6220    -0.0600 hc         1 T3O       0.041200
     34 HAQ2         0.1700    -3.0270     1.4140 hc         1 T3O       0.041200
     35 HAQ3        -0.6620    -1.4900     1.2940 hc         1 T3O       0.041200
     36 HAB          0.3510     1.1500    -1.6260 h1         1 T3O       0.075700
     37 HAC         -1.5030    -0.8300    -2.1860 ha         1 T3O       0.118500
     38 HAH         -3.9380    -1.1160    -1.8570 ha         1 T3O       0.119500
     39 HOAS        -5.6980    -0.6250    -0.5920 ho         1 T3O       0.464000
     40 HAG         -3.7600     1.3500     1.6780 ha         1 T3O       0.119500
     41 HAE         -1.3380     1.6530     1.3680 ha         1 T3O       0.118500
@<TRIPOS>BOND
     1     1     2 1   
     2     1     7 1   
     3     1    20 1   
     4     1    21 1   
     5     2     3 1   
     6     2    12 1   
     7     2    22 1   
     8     3     4 1   
     9     3     5 2   
    10     4    23 1   
    11     4    24 1   
    12     4    25 1   
    13     5     6 1   
    14     5    26 1   
    15     6     7 1   
    16     6    27 1   
    17     6    28 1   
    18     7     8 1   
    19     7    29 1   
    20     8     9 1   
    21     8    10 1   
    22     8    11 1   
    23     9    30 1   
    24     9    31 1   
    25     9    32 1   
    26    10    33 1   
    27    10    34 1   
    28    10    35 1   
    29    11    12 1   
    30    12    13 1   
    31    12    36 1   
    32    13    14 ar  
    33    13    19 ar  
    34    14    15 ar  
    35    14    37 1   
    36    15    16 ar  
    37    15    38 1   
    38    16    17 1   
    39    16    18 ar  
    40    17    39 1   
    41    18    19 ar  
    42    18    40 1   
    43    19    41 1   
@<TRIPOS>SUBSTRUCTURE
     1 T3O         1 TEMP              0 ****  ****    0 ROOT
