@<TRIPOS>MOLECULE
T3O
   41    43     1     0     0
SMALL
bcc


@<TRIPOS>ATOM
      1 CAN          1.3010     0.4040     1.5950 c6         1 T3O      -0.071400
      2 CAD          1.1260     1.2780     0.3570 c6         1 T3O      -0.048500
      3 CAI          2.4710     1.6340    -0.2290 c2         1 T3O      -0.118400
      4 CAL          2.5520     2.9020    -1.0210 c3         1 T3O      -0.049900
      5 CAO          3.5180     0.8330    -0.0390 c2         1 T3O      -0.153200
      6 CAM          3.4730    -0.4300     0.7650 c6         1 T3O      -0.032200
      7 CAP          2.0560    -0.8530     1.1650 c6         1 T3O      -0.078700
      8 CAK          1.2450    -1.5960     0.0790 c6         1 T3O       0.171800
      9 CAF          2.0580    -2.6990    -0.5930 c3         1 T3O      -0.098600
     10 CAQ          0.0190    -2.2510     0.7270 c3         1 T3O      -0.098600
     11 OAR          0.8850    -0.7240    -0.9930 os         1 T3O      -0.410600
     12 CAB          0.3030     0.5300    -0.7030 c6         1 T3O       0.212400
     13 CAA         -1.1880     0.4190    -0.4260 ca         1 T3O      -0.145300
     14 CAC         -1.9540    -0.4150    -1.2390 ca         1 T3O      -0.079500
     15 CAH         -3.3220    -0.5450    -1.0700 ca         1 T3O      -0.198000
     16 CAJ         -3.9700     0.1700    -0.0650 ca         1 T3O       0.138100
     17 OAS         -5.2990     0.0770     0.1540 oh         1 T3O      -0.496100
     18 CAG         -3.2270     1.0190     0.7470 ca         1 T3O      -0.198000
     19 CAE         -1.8560     1.1380     0.5600 ca         1 T3O      -0.079500
     20 HAN1         0.3380     0.1610     2.0480 hc         1 T3O       0.048200
     21 HAN2         1.8710     0.9440     2.3550 hc         1 T3O       0.048200
     22 HAD          0.6090     2.2070     0.6150 hc         1 T3O       0.059700
     23 HAL1         3.5410     3.0470    -1.4550 hc         1 T3O       0.038700
     24 HAL2         1.8250     2.9140    -1.8400 hc         1 T3O       0.038700
     25 HAL3         2.3260     3.7700    -0.3970 hc         1 T3O       0.038700
     26 HAO          4.4830     1.1110    -0.4560 ha         1 T3O       0.120000
     27 HAM1         3.9980    -1.2270     0.2350 hc         1 T3O       0.047200
     28 HAM2         4.0550    -0.2800     1.6820 hc         1 T3O       0.047200
     29 HAP          2.1400    -1.5420     2.0100 hc         1 T3O       0.050700
     30 HAF1         2.8570    -2.2950    -1.2130 hc         1 T3O       0.041200
     31 HAF2         2.5070    -3.3540     0.1540 hc         1 T3O       0.041200
     32 HAF3         1.4180    -3.3120    -1.2290 hc         1 T3O       0.041200
     33 HAQ1        -0.6030    -2.7390    -0.0230 hc         1 T3O       0.041200
     34 HAQ2         0.3480    -3.0150     1.4340 hc         1 T3O       0.041200
     35 HAQ3        -0.6130    -1.5520     1.2720 hc         1 T3O       0.041200
     36 HAB          0.3960     1.0840    -1.6440 h1         1 T3O       0.075700
     37 HAC         -1.4740    -0.9900    -2.0210 ha         1 T3O       0.136500
     38 HAH         -3.8840    -1.2060    -1.7210 ha         1 T3O       0.137500
     39 HOAS        -5.6940    -0.5590    -0.4520 ho         1 T3O       0.425000
     40 HAG         -3.7200     1.5830     1.5290 ha         1 T3O       0.137500
     41 HAE         -1.3180     1.8110     1.2150 ha         1 T3O       0.136500
@<TRIPOS>BOND
     1     1     2 1   
     2     1     7 1   
     3     1    20 1   
     4     1    21 1   
     5     2     3 1   
     6     2    12 1   
     7     2    22 1   
     8     3     4 1   
     9     3     5 2   
    10     4    23 1   
    11     4    24 1   
    12     4    25 1   
    13     5     6 1   
    14     5    26 1   
    15     6     7 1   
    16     6    27 1   
    17     6    28 1   
    18     7     8 1   
    19     7    29 1   
    20     8     9 1   
    21     8    10 1   
    22     8    11 1   
    23     9    30 1   
    24     9    31 1   
    25     9    32 1   
    26    10    33 1   
    27    10    34 1   
    28    10    35 1   
    29    11    12 1   
    30    12    13 1   
    31    12    36 1   
    32    13    14 ar  
    33    13    19 ar  
    34    14    15 ar  
    35    14    37 1   
    36    15    16 ar  
    37    15    38 1   
    38    16    17 1   
    39    16    18 ar  
    40    17    39 1   
    41    18    19 ar  
    42    18    40 1   
    43    19    41 1   
@<TRIPOS>SUBSTRUCTURE
     1 T3O         1 TEMP              0 ****  ****    0 ROOT
