@<TRIPOS>MOLECULE
T3Q
   60    62     1     0     0
SMALL
No Charge or Current Charge


@<TRIPOS>ATOM
      1 O4          -5.3870    -3.9520     0.8120 o          1 T3Q      -0.568000
      2 C4          -4.5240    -3.1670     0.4550 c          1 T3Q       0.600200
      3 N3          -4.5840    -1.8580     0.8050 ns         1 T3Q      -0.465500
      4 C2          -3.7210    -0.8550     0.4940 c          1 T3Q       0.626000
      5 O2          -3.9620     0.2810     0.8670 o          1 T3Q      -0.538000
      6 C5          -3.3520    -3.5170    -0.3740 cc         1 T3Q      -0.299400
      7 C5M         -3.2450    -4.9630    -0.8000 c3         1 T3Q      -0.005900
      8 C6          -2.4370    -2.5440    -0.7120 cd         1 T3Q       0.030600
      9 N1          -2.6020    -1.2270    -0.2840 n          1 T3Q      -0.309000
     10 C1          -1.5510    -0.2360    -0.6440 c5         1 T3Q       0.348700
     11 O6          -1.2800     0.7280     0.3890 os         1 T3Q      -0.384000
     12 C8          -2.0400     0.5530    -1.8990 c5         1 T3Q      -0.154400
     13 C3          -2.1840     1.9950    -1.3450 c5         1 T3Q       0.124300
     14 O3          -1.9970     2.9780    -2.3690 oh         1 T3Q      -0.706000
     15 C7          -1.0620     1.9970    -0.2640 c5         1 T3Q       0.168300
     16 C9          -1.1790     3.1690     0.7550 c3         1 T3Q       0.233600
     17 O5          -0.0870     3.2030     1.6970 os         1 T3Q      -0.572400
     18 PA           1.4380     3.4800     1.2500 p5         1 T3Q       1.459800
     19 O1A          2.2180     4.1660     2.3210 o          1 T3Q      -0.855000
     20 O2A          1.4740     4.2940     0.0020 o          1 T3Q      -0.855000
     21 O3A          1.9230     2.0130     0.9230 os         1 T3Q      -0.687800
     22 PB           2.3990     1.1970     2.1910 p5         1 T3Q       1.464800
     23 O1B          1.4790     1.2550     3.3630 o          1 T3Q      -0.845500
     24 O2B          3.8200     1.4670     2.5590 o          1 T3Q      -0.845500
     25 O3B          2.2780    -0.2550     1.5150 os         1 T3Q      -0.576400
     26 O4Q          0.8850    -2.3460    -2.3770 oh         1 T3Q      -0.702000
     27 C4Q          2.0440    -2.0670    -1.5780 c6         1 T3Q       0.151300
     28 C5Q          1.9270    -2.5920    -0.1130 c6         1 T3Q       0.135300
     29 O5Q          3.1170    -2.2240     0.6360 os         1 T3Q      -0.486000
     30 C6Q          1.8050    -4.1370    -0.0220 c3         1 T3Q      -0.082100
     31 C3Q          2.2760    -0.5290    -1.5650 c6         1 T3Q       0.162500
     32 N3Q          2.3440     0.0030    -2.9680 n8         1 T3Q      -0.989200
     33 C2Q          3.5370    -0.1790    -0.7130 c6         1 T3Q       0.113300
     34 O2Q          3.7940     1.2450    -0.7470 oh         1 T3Q      -0.703000
     35 C1Q          3.3570    -0.7980     0.7430 c6         1 T3Q       0.421300
     36 HN3         -5.3800    -1.5900     1.3610 hn         1 T3Q       0.336500
     37 H5M         -3.2200    -5.6310     0.0700 hc         1 T3Q       0.034367
     38 H5MA        -4.0980    -5.2530    -1.4260 hc         1 T3Q       0.034367
     39 H5MB        -2.3320    -5.1400    -1.3810 hc         1 T3Q       0.034367
     40 H6          -1.5520    -2.7220    -1.3180 h4         1 T3Q       0.198000
     41 H1          -0.6410    -0.8000    -0.8720 h2         1 T3Q       0.046700
     42 H2          -1.2870     0.4960    -2.6940 hc         1 T3Q       0.049200
     43 H2'A        -2.9800     0.1740    -2.3180 hc         1 T3Q       0.049200
     44 H3          -3.1640     2.1270    -0.8620 h1         1 T3Q       0.071700
     45 HO3         -2.7240     2.8580    -3.0230 ho         1 T3Q       0.485000
     46 H4          -0.0720     2.0000    -0.7400 h1         1 T3Q       0.069700
     47 H5          -1.2240     4.1150     0.1990 h1         1 T3Q       0.027700
     48 H5'A        -2.1300     3.0690     1.2940 h1         1 T3Q       0.027700
     49 HO4Q         0.9580    -1.6830    -3.1090 ho         1 T3Q       0.481000
     50 H6Q          2.6590    -4.6340    -0.4990 hc         1 T3Q       0.030033
     51 H6QA         1.7660    -4.4680     1.0240 hc         1 T3Q       0.030033
     52 H6QB         0.8900    -4.4930    -0.5140 hc         1 T3Q       0.030033
     53 H3Q          1.4080    -0.0600    -1.0730 h1         1 T3Q       0.123700
     54 HN3Q         2.5350     1.0110    -2.9070 hn         1 T3Q       0.379000
     55 HN3A         3.2030    -0.3530    -3.4060 hn         1 T3Q       0.379000
     56 H2Q          4.3990    -0.6860    -1.1720 h1         1 T3Q      -0.008300
     57 HO2Q         3.0650     1.6670    -0.2120 ho         1 T3Q       0.496000
     58 H1Q          4.3020    -0.6560     1.2940 h2         1 T3Q       0.073700
     59 H4Q          2.9190    -2.5430    -2.0440 h1         1 T3Q       0.001700
     60 H5Q          1.0400    -2.1500     0.3690 h1         1 T3Q       0.112700
@<TRIPOS>BOND
     1     1     2 2   
     2     2     3 1   
     3     2     6 1   
     4     3     4 1   
     5     3    36 1   
     6     4     5 2   
     7     4     9 1   
     8     6     7 1   
     9     6     8 2   
    10     7    37 1   
    11     7    38 1   
    12     7    39 1   
    13     8     9 1   
    14     8    40 1   
    15     9    10 1   
    16    10    11 1   
    17    10    12 1   
    18    10    41 1   
    19    11    15 1   
    20    12    13 1   
    21    12    42 1   
    22    12    43 1   
    23    13    14 1   
    24    13    15 1   
    25    13    44 1   
    26    14    45 1   
    27    15    16 1   
    28    15    46 1   
    29    16    17 1   
    30    16    47 1   
    31    16    48 1   
    32    17    18 1   
    33    18    19 1   
    34    18    20 1   
    35    18    21 1   
    36    21    22 1   
    37    22    23 1   
    38    22    24 1   
    39    22    25 1   
    40    25    35 1   
    41    26    27 1   
    42    26    49 1   
    43    27    28 1   
    44    27    31 1   
    45    27    59 1   
    46    28    29 1   
    47    28    30 1   
    48    28    60 1   
    49    29    35 1   
    50    30    50 1   
    51    30    51 1   
    52    30    52 1   
    53    31    32 1   
    54    31    33 1   
    55    31    53 1   
    56    32    54 1   
    57    32    55 1   
    58    33    34 1   
    59    33    35 1   
    60    33    56 1   
    61    34    57 1   
    62    35    58 1   
@<TRIPOS>SUBSTRUCTURE
     1 T3Q         1 TEMP              0 ****  ****    0 ROOT
