@<TRIPOS>MOLECULE
T3Q
   60    62     1     0     0
SMALL
bcc


@<TRIPOS>ATOM
      1 O4          -5.7900    -3.1900     2.3120 o          1 T3Q      -0.643500
      2 C4          -5.3040    -2.5340     1.4090 c          1 T3Q       0.742700
      3 N3          -5.2560    -1.1540     1.4870 ns         1 T3Q      -0.599500
      4 C2          -4.7510    -0.2700     0.5690 c          1 T3Q       0.835500
      5 O2          -4.7610     0.9270     0.7610 o          1 T3Q      -0.613500
      6 C5          -4.7370    -3.0810     0.1930 cc         1 T3Q      -0.299400
      7 C5M         -4.7250    -4.5620     0.0040 c3         1 T3Q      -0.005900
      8 C6          -4.2420    -2.2190    -0.7120 cd         1 T3Q       0.080600
      9 N1          -4.2480    -0.8560    -0.5700 n          1 T3Q      -0.376000
     10 C1          -3.6320    -0.0280    -1.6090 c5         1 T3Q       0.325500
     11 O6          -2.4740     0.5650    -1.0990 os         1 T3Q      -0.337600
     12 C8          -4.5050     1.0870    -2.1920 c5         1 T3Q      -0.154400
     13 C3          -3.8440     2.3860    -1.7300 c5         1 T3Q       0.101100
     14 O3          -3.8050     3.4030    -2.7010 oh         1 T3Q      -0.583800
     15 C7          -2.4130     1.9430    -1.4220 c5         1 T3Q       0.145100
     16 C9          -1.7990     2.7130    -0.2790 c3         1 T3Q       0.210400
     17 O5          -0.4470     2.3410    -0.1320 os         1 T3Q      -0.549200
     18 PA           0.3670     2.9300     1.1690 p5         1 T3Q       1.459800
     19 O1A         -0.2830     2.4690     2.4350 o          1 T3Q      -0.855000
     20 O2A          0.6530     4.3840     0.9510 o          1 T3Q      -0.855000
     21 O3A          1.7720     2.1310     0.9080 os         1 T3Q      -0.687800
     22 PB           2.1210     0.6230     1.4720 p5         1 T3Q       1.464800
     23 O1B          1.0380    -0.3320     1.0950 o          1 T3Q      -0.845500
     24 O2B          2.6360     0.7010     2.8750 o          1 T3Q      -0.845500
     25 O3B          3.4050     0.4390     0.4390 os         1 T3Q      -0.553200
     26 O4Q          3.9780    -2.9590    -2.4000 oh         1 T3Q      -0.579800
     27 C4Q          4.5490    -2.3990    -1.2410 c6         1 T3Q       0.128100
     28 C5Q          3.5290    -2.3660    -0.0960 c6         1 T3Q       0.112100
     29 O5Q          4.0770    -1.7020     1.0360 os         1 T3Q      -0.439600
     30 C6Q          3.1190    -3.7490     0.3670 c3         1 T3Q      -0.082100
     31 C3Q          5.0360    -0.9910    -1.5730 c6         1 T3Q       0.162500
     32 N3Q          6.0390    -1.0380    -2.6230 n8         1 T3Q      -0.878800
     33 C2Q          5.5320    -0.3290    -0.2840 c6         1 T3Q       0.090100
     34 O2Q          5.9200     0.9880    -0.5810 oh         1 T3Q      -0.580800
     35 C1Q          4.4690    -0.3800     0.8140 c6         1 T3Q       0.374900
     36 HN3         -5.6360    -0.7320     2.3250 hn         1 T3Q       0.336500
     37 H5M         -4.1690    -5.0600     0.7990 hc         1 T3Q       0.034367
     38 H5MA        -5.7370    -4.9710     0.0130 hc         1 T3Q       0.034367
     39 H5MB        -4.2650    -4.8300    -0.9450 hc         1 T3Q       0.034367
     40 H6          -3.8030    -2.5780    -1.6330 h4         1 T3Q       0.148000
     41 H1          -3.3750    -0.7410    -2.3970 h2         1 T3Q       0.046700
     42 H2          -4.4520     1.0310    -3.2800 hc         1 T3Q       0.049200
     43 H2'A        -5.5530     1.0020    -1.9110 hc         1 T3Q       0.049200
     44 H3          -4.3270     2.7440    -0.8170 h1         1 T3Q       0.071700
     45 HO3         -4.6690     3.8230    -2.7320 ho         1 T3Q       0.386000
     46 H4          -1.8040     2.0810    -2.3280 h1         1 T3Q       0.069700
     47 H5          -1.8950     3.7830    -0.5020 h1         1 T3Q       0.027700
     48 H5'A        -2.3720     2.5110     0.6330 h1         1 T3Q       0.027700
     49 HO4Q         3.9100    -3.9100    -2.2780 ho         1 T3Q       0.382000
     50 H6Q          3.9780    -4.3270     0.7160 hc         1 T3Q       0.030033
     51 H6QA         2.3980    -3.6790     1.1820 hc         1 T3Q       0.030033
     52 H6QB         2.6390    -4.3070    -0.4370 hc         1 T3Q       0.030033
     53 H3Q          4.1840    -0.4150    -1.9530 h1         1 T3Q       0.123700
     54 HN3Q         6.3470    -0.0970    -2.8310 hn         1 T3Q       0.323800
     55 HN3A         6.8610    -1.5270    -2.2830 hn         1 T3Q       0.323800
     56 H2Q          6.3880    -0.9180     0.0810 h1         1 T3Q      -0.008300
     57 HO2Q         6.4400     1.3290     0.1530 ho         1 T3Q       0.397000
     58 H1Q          4.8950    -0.0450     1.7680 h2         1 T3Q       0.073700
     59 H4Q          5.4190    -2.9890    -0.9080 h1         1 T3Q       0.001700
     60 H5Q          2.6350    -1.8350    -0.4440 h1         1 T3Q       0.112700
@<TRIPOS>BOND
     1     1     2 2   
     2     2     3 1   
     3     2     6 1   
     4     3     4 1   
     5     3    36 1   
     6     4     5 2   
     7     4     9 1   
     8     6     7 1   
     9     6     8 2   
    10     7    37 1   
    11     7    38 1   
    12     7    39 1   
    13     8     9 1   
    14     8    40 1   
    15     9    10 1   
    16    10    11 1   
    17    10    12 1   
    18    10    41 1   
    19    11    15 1   
    20    12    13 1   
    21    12    42 1   
    22    12    43 1   
    23    13    14 1   
    24    13    15 1   
    25    13    44 1   
    26    14    45 1   
    27    15    16 1   
    28    15    46 1   
    29    16    17 1   
    30    16    47 1   
    31    16    48 1   
    32    17    18 1   
    33    18    19 1   
    34    18    20 1   
    35    18    21 1   
    36    21    22 1   
    37    22    23 1   
    38    22    24 1   
    39    22    25 1   
    40    25    35 1   
    41    26    27 1   
    42    26    49 1   
    43    27    28 1   
    44    27    31 1   
    45    27    59 1   
    46    28    29 1   
    47    28    30 1   
    48    28    60 1   
    49    29    35 1   
    50    30    50 1   
    51    30    51 1   
    52    30    52 1   
    53    31    32 1   
    54    31    33 1   
    55    31    53 1   
    56    32    54 1   
    57    32    55 1   
    58    33    34 1   
    59    33    35 1   
    60    33    56 1   
    61    34    57 1   
    62    35    58 1   
@<TRIPOS>SUBSTRUCTURE
     1 T3Q         1 TEMP              0 ****  ****    0 ROOT
