@<TRIPOS>MOLECULE
T3R
   27    26     1     0     0
SMALL
No Charge or Current Charge


@<TRIPOS>ATOM
      1 C52        121.9160   123.0590   111.4670 c3         1 T3R       0.161100
      2 CA         124.1810   124.1110   110.9860 c3         1 T3R       0.030500
      3 C          125.0490   122.8280   111.3410 c          1 T3R       0.725000
      4 C70        124.1990   125.1760   112.1240 c3         1 T3R      -0.093400
      5 C71        123.6000   126.5520   111.7190 c3         1 T3R      -0.076400
      6 C72        123.6570   127.6590   112.8100 c3         1 T3R      -0.054700
      7 C73        125.1010   128.0640   113.1870 c3         1 T3R      -0.083600
      8 C74        122.8190   127.3120   114.0630 c3         1 T3R      -0.083600
      9 N          122.7690   123.8280   110.5390 n7         1 T3R      -0.828400
     10 O          125.0960   122.4360   112.5020 o          1 T3R      -0.726000
     11 H521       120.9250   122.8940   111.0240 h1         1 T3R       0.012033
     12 H522       122.3570   122.0770   111.6840 h1         1 T3R       0.012033
     13 H523       121.7770   123.5960   112.4140 h1         1 T3R       0.012033
     14 HA         124.7050   124.5760   110.1390 h1         1 T3R       0.030700
     15 H702       123.6760   124.7840   113.0030 hc         1 T3R       0.048200
     16 H701       125.2430   125.3220   112.4250 hc         1 T3R       0.048200
     17 H711       124.1240   126.9150   110.8260 hc         1 T3R       0.023200
     18 H712       122.5530   126.4170   111.4250 hc         1 T3R       0.023200
     19 H721       123.1930   128.5480   112.3640 hc         1 T3R       0.018700
     20 H733       125.0940   128.9450   113.8390 hc         1 T3R       0.027200
     21 H731       125.6160   127.2560   113.7180 hc         1 T3R       0.027200
     22 H732       125.6810   128.3130   112.2900 hc         1 T3R       0.027200
     23 H743       122.7640   128.1750   114.7380 hc         1 T3R       0.027200
     24 H741       121.7950   127.0390   113.7810 hc         1 T3R       0.027200
     25 H742       123.2600   126.4760   114.6180 hc         1 T3R       0.027200
     26 H          122.3090   124.7260   110.3560 hn         1 T3R       0.363000
     27 OXT        125.6860   122.2950   110.4390 o          1 T3R      -0.726000
@<TRIPOS>BOND
     1     1     9 1   
     2     1    11 1   
     3     1    12 1   
     4     1    13 1   
     5     2     3 1   
     6     2     4 1   
     7     2     9 1   
     8     2    14 1   
     9     3    10 1   
    10     3    27 1   
    11     4     5 1   
    12     4    15 1   
    13     4    16 1   
    14     5     6 1   
    15     5    17 1   
    16     5    18 1   
    17     6     7 1   
    18     6     8 1   
    19     6    19 1   
    20     7    20 1   
    21     7    21 1   
    22     7    22 1   
    23     8    23 1   
    24     8    24 1   
    25     8    25 1   
    26     9    26 1   
@<TRIPOS>SUBSTRUCTURE
     1 T3R         1 TEMP              0 ****  ****    0 ROOT
