@<TRIPOS>MOLECULE
T3R
   27    26     1     0     0
SMALL
abcg2


@<TRIPOS>ATOM
      1 C52        121.9710   123.2870   111.2490 c3         1 T3R       0.161100
      2 CA         124.2650   124.1240   111.1020 c3         1 T3R       0.030500
      3 C          124.9770   122.8020   111.5230 c          1 T3R       0.725000
      4 C70        124.1550   125.1410   112.2440 c3         1 T3R      -0.093400
      5 C71        123.4820   126.4440   111.8220 c3         1 T3R      -0.076400
      6 C72        123.5670   127.5870   112.8410 c3         1 T3R      -0.054700
      7 C73        124.9920   128.1100   113.0020 c3         1 T3R      -0.083600
      8 C74        122.9700   127.2040   114.1920 c3         1 T3R      -0.083600
      9 N          123.0140   123.8370   110.4100 n7         1 T3R      -0.828400
     10 O          125.4950   122.7680   112.6570 o          1 T3R      -0.726000
     11 H521       121.0720   123.1280   110.6510 h1         1 T3R       0.012033
     12 H522       122.2750   122.3130   111.6360 h1         1 T3R       0.012033
     13 H523       121.6830   123.9050   112.1100 h1         1 T3R       0.012033
     14 HA         124.9170   124.5780   110.3410 h1         1 T3R       0.030700
     15 H702       123.6210   124.7040   113.0930 hc         1 T3R       0.048200
     16 H701       125.1650   125.3460   112.6060 hc         1 T3R       0.048200
     17 H711       123.9220   126.7900   110.8790 hc         1 T3R       0.023200
     18 H712       122.4240   126.2580   111.6080 hc         1 T3R       0.023200
     19 H721       122.9640   128.4090   112.4380 hc         1 T3R       0.018700
     20 H733       125.0200   128.9750   113.6690 hc         1 T3R       0.027200
     21 H731       125.6560   127.3530   113.4250 hc         1 T3R       0.027200
     22 H732       125.4120   128.4190   112.0430 hc         1 T3R       0.027200
     23 H743       122.9100   128.0710   114.8520 hc         1 T3R       0.027200
     24 H741       121.9620   126.7990   114.0840 hc         1 T3R       0.027200
     25 H742       123.5760   126.4510   114.7000 hc         1 T3R       0.027200
     26 H          122.6740   124.6830   109.9720 hn         1 T3R       0.363000
     27 OXT        125.0010   121.8940   110.6710 o          1 T3R      -0.726000
@<TRIPOS>BOND
     1     1     9 1   
     2     1    11 1   
     3     1    12 1   
     4     1    13 1   
     5     2     3 1   
     6     2     4 1   
     7     2     9 1   
     8     2    14 1   
     9     3    10 1   
    10     3    27 1   
    11     4     5 1   
    12     4    15 1   
    13     4    16 1   
    14     5     6 1   
    15     5    17 1   
    16     5    18 1   
    17     6     7 1   
    18     6     8 1   
    19     6    19 1   
    20     7    20 1   
    21     7    21 1   
    22     7    22 1   
    23     8    23 1   
    24     8    24 1   
    25     8    25 1   
    26     9    26 1   
@<TRIPOS>SUBSTRUCTURE
     1 T3R         1 TEMP              0 ****  ****    0 ROOT
