@<TRIPOS>MOLECULE
T3S
   45    47     1     0     0
SMALL
abcg2


@<TRIPOS>ATOM
      1 C21          3.6850    -1.0420     1.2290 c6         1 T3S       0.170300
      2 C22          4.2300    -2.3780     0.7500 c6         1 T3S      -0.074900
      3 C23          5.1560    -2.1830    -0.4440 c6         1 T3S      -0.075400
      4 C24          4.4450    -1.3740    -1.5220 c6         1 T3S      -0.074900
      5 C25          3.8870    -0.0780    -0.9520 c6         1 T3S       0.170300
      6 N26          2.9930    -0.3400     0.1610 n3         1 T3S      -0.710600
      7 C5           2.3410     0.8500     0.6650 c3         1 T3S       0.173800
      8 C4           1.3630     1.4830    -0.3040 c5         1 T3S       0.175300
      9 O4           0.3830     0.5330    -0.6840 os         1 T3S      -0.428000
     10 C3           0.6020     2.6650     0.3000 c5         1 T3S       0.136300
     11 O3           1.3370     3.8420     0.0780 oh         1 T3S      -0.712000
     12 C2          -0.7400     2.6020    -0.4310 c5         1 T3S      -0.151400
     13 C1          -0.8410     1.1600    -0.9400 c5         1 T3S       0.349700
     14 N1          -1.9170     0.3500    -0.3730 n          1 T3S      -0.316000
     15 C6          -2.7960    -0.2780    -1.2160 cc         1 T3S      -0.002400
     16 C7          -3.7960    -1.0800    -0.8120 cd         1 T3S      -0.263400
     17 C5M         -4.7420    -1.7450    -1.7570 c3         1 T3S      -0.019900
     18 C8          -3.9480    -1.3060     0.6110 c          1 T3S       0.588200
     19 O1          -4.8030    -2.0070     1.1210 o          1 T3S      -0.528000
     20 N3          -3.0170    -0.6500     1.3950 ns         1 T3S      -0.468500
     21 C9          -1.9930     0.1680     0.9890 c          1 T3S       0.625000
     22 O2          -1.2320     0.6840     1.7800 o          1 T3S      -0.561000
     23 H21          2.9850    -1.1980     2.0530 h1         1 T3S       0.028450
     24 H21A         4.5180    -0.4360     1.6320 h1         1 T3S       0.028450
     25 H22          4.7530    -2.8730     1.5720 hc         1 T3S       0.046200
     26 H22A         3.3940    -3.0240     0.4670 hc         1 T3S       0.046200
     27 H23          6.0560    -1.6480    -0.1230 hc         1 T3S       0.037700
     28 H23A         5.4880    -3.1460    -0.8390 hc         1 T3S       0.037700
     29 H24          5.1230    -1.1450    -2.3470 hc         1 T3S       0.046200
     30 H24A         3.6210    -1.9620    -1.9380 hc         1 T3S       0.046200
     31 H25          4.7230     0.5790    -0.6460 h1         1 T3S       0.028450
     32 H25A         3.3460     0.4540    -1.7360 h1         1 T3S       0.028450
     33 H5           1.7870     0.5760     1.5680 h1         1 T3S       0.047200
     34 H5'A         3.0630     1.6310     0.9640 h1         1 T3S       0.047200
     35 H4           1.8840     1.8490    -1.2000 h1         1 T3S       0.058700
     36 H3           0.4510     2.4980     1.3710 h1         1 T3S       0.072700
     37 HO3          0.9690     4.5360     0.6320 ho         1 T3S       0.511000
     38 H2          -1.5880     2.9000     0.1840 hc         1 T3S       0.071200
     39 H2'A        -0.7100     3.2720    -1.2920 hc         1 T3S       0.071200
     40 H1          -1.0450     1.1650    -2.0140 h2         1 T3S       0.059700
     41 H6          -2.6360    -0.0810    -2.2680 h4         1 T3S       0.203000
     42 H5M         -4.6870    -2.8320    -1.6750 hc         1 T3S       0.047033
     43 H5MA        -5.7740    -1.4580    -1.5540 hc         1 T3S       0.047033
     44 H5MB        -4.5160    -1.4760    -2.7870 hc         1 T3S       0.047033
     45 HN3         -3.0850    -0.7890     2.3950 hn         1 T3S       0.341500
@<TRIPOS>BOND
     1     1     2 1   
     2     1     6 1   
     3     1    23 1   
     4     1    24 1   
     5     2     3 1   
     6     2    25 1   
     7     2    26 1   
     8     3     4 1   
     9     3    27 1   
    10     3    28 1   
    11     4     5 1   
    12     4    29 1   
    13     4    30 1   
    14     5     6 1   
    15     5    31 1   
    16     5    32 1   
    17     6     7 1   
    18     7     8 1   
    19     7    33 1   
    20     7    34 1   
    21     8     9 1   
    22     8    10 1   
    23     8    35 1   
    24     9    13 1   
    25    10    11 1   
    26    10    12 1   
    27    10    36 1   
    28    11    37 1   
    29    12    13 1   
    30    12    38 1   
    31    12    39 1   
    32    13    14 1   
    33    13    40 1   
    34    14    15 1   
    35    14    21 1   
    36    15    16 2   
    37    15    41 1   
    38    16    17 1   
    39    16    18 1   
    40    17    42 1   
    41    17    43 1   
    42    17    44 1   
    43    18    19 2   
    44    18    20 1   
    45    20    21 1   
    46    20    45 1   
    47    21    22 2   
@<TRIPOS>SUBSTRUCTURE
     1 T3S         1 TEMP              0 ****  ****    0 ROOT
