@<TRIPOS>MOLECULE
T3S
   45    47     1     0     0
SMALL
No Charge or Current Charge


@<TRIPOS>ATOM
      1 C21          4.2870    -0.8350     1.3450 c6         1 T3S       0.170300
      2 C22          5.0570    -2.1200     0.9520 c6         1 T3S      -0.074900
      3 C23          5.7860    -1.9370    -0.3980 c6         1 T3S      -0.075400
      4 C24          4.7870    -1.4660    -1.4790 c6         1 T3S      -0.074900
      5 C25          4.0190    -0.2010    -1.0180 c6         1 T3S       0.170300
      6 N26          3.3250    -0.4190     0.2860 n3         1 T3S      -0.710600
      7 C5           2.4960     0.7460     0.7200 c3         1 T3S       0.173800
      8 C4           1.3140     1.1510    -0.2110 c5         1 T3S       0.175300
      9 O4           0.3460     0.0880    -0.3230 os         1 T3S      -0.428000
     10 C3           0.4420     2.3250     0.3210 c5         1 T3S       0.136300
     11 O3           1.0690     3.6070     0.1970 oh         1 T3S      -0.712000
     12 C2          -0.7960     2.1970    -0.6100 c5         1 T3S      -0.151400
     13 C1          -0.8240     0.6670    -0.9250 c5         1 T3S       0.349700
     14 N1          -2.1030     0.1120    -0.4020 n          1 T3S      -0.316000
     15 C6          -3.1470    -0.1000    -1.3070 cc         1 T3S      -0.002400
     16 C7          -4.3320    -0.6650    -0.8880 cd         1 T3S      -0.263400
     17 C5M         -5.5020    -0.9310    -1.8100 c3         1 T3S      -0.019900
     18 C8          -4.5090    -1.0510     0.5330 c          1 T3S       0.588200
     19 O1          -5.5160    -1.5610     0.9950 o          1 T3S      -0.528000
     20 N3          -3.4320    -0.7820     1.3150 ns         1 T3S      -0.468500
     21 C9          -2.2440    -0.2220     0.9650 c          1 T3S       0.625000
     22 O2          -1.4030    -0.0160     1.8240 o          1 T3S      -0.561000
     23 H21          3.7540    -1.0230     2.2890 h1         1 T3S       0.028450
     24 H21A         5.0110    -0.0290     1.5380 h1         1 T3S       0.028450
     25 H22          5.7800    -2.3760     1.7380 hc         1 T3S       0.046200
     26 H22A         4.3550    -2.9620     0.8840 hc         1 T3S       0.046200
     27 H23          6.5910    -1.1970    -0.2890 hc         1 T3S       0.037700
     28 H23A         6.2600    -2.8790    -0.7050 hc         1 T3S       0.037700
     29 H24          5.3180    -1.2570    -2.4170 hc         1 T3S       0.046200
     30 H24A         4.0690    -2.2690    -1.6960 hc         1 T3S       0.046200
     31 H25          4.7260     0.6380    -0.9360 h1         1 T3S       0.028450
     32 H25A         3.2980     0.0600    -1.8050 h1         1 T3S       0.028450
     33 H5           2.0660     0.5350     1.7090 h1         1 T3S       0.047200
     34 H5'A         3.1410     1.6280     0.8430 h1         1 T3S       0.047200
     35 H4           1.7010     1.3880    -1.2110 h1         1 T3S       0.058700
     36 H3           0.1610     2.1310     1.3670 h1         1 T3S       0.072700
     37 HO3          0.4330     4.2770     0.5410 ho         1 T3S       0.511000
     38 H2          -1.7120     2.5630    -0.1320 hc         1 T3S       0.071200
     39 H2'A        -0.6690     2.7660    -1.5370 hc         1 T3S       0.071200
     40 H1          -0.8050     0.4960    -2.0080 h2         1 T3S       0.059700
     41 H6          -2.9230     0.2120    -2.3240 h4         1 T3S       0.203000
     42 H5M         -5.7480    -1.9990    -1.8400 hc         1 T3S       0.047033
     43 H5MA        -6.3970    -0.3890    -1.4800 hc         1 T3S       0.047033
     44 H5MB        -5.2850    -0.6130    -2.8370 hc         1 T3S       0.047033
     45 HN3         -3.5280    -1.0210     2.2880 hn         1 T3S       0.341500
@<TRIPOS>BOND
     1     1     2 1   
     2     1     6 1   
     3     1    23 1   
     4     1    24 1   
     5     2     3 1   
     6     2    25 1   
     7     2    26 1   
     8     3     4 1   
     9     3    27 1   
    10     3    28 1   
    11     4     5 1   
    12     4    29 1   
    13     4    30 1   
    14     5     6 1   
    15     5    31 1   
    16     5    32 1   
    17     6     7 1   
    18     7     8 1   
    19     7    33 1   
    20     7    34 1   
    21     8     9 1   
    22     8    10 1   
    23     8    35 1   
    24     9    13 1   
    25    10    11 1   
    26    10    12 1   
    27    10    36 1   
    28    11    37 1   
    29    12    13 1   
    30    12    38 1   
    31    12    39 1   
    32    13    14 1   
    33    13    40 1   
    34    14    15 1   
    35    14    21 1   
    36    15    16 2   
    37    15    41 1   
    38    16    17 1   
    39    16    18 1   
    40    17    42 1   
    41    17    43 1   
    42    17    44 1   
    43    18    19 2   
    44    18    20 1   
    45    20    21 1   
    46    20    45 1   
    47    21    22 2   
@<TRIPOS>SUBSTRUCTURE
     1 T3S         1 TEMP              0 ****  ****    0 ROOT
