@<TRIPOS>MOLECULE
T3T
   32    34     1     0     0
SMALL
bcc


@<TRIPOS>ATOM
      1 C10          3.0440    -4.8920     6.7400 ca         1 T3T      -0.088300
      2 C13          0.4300    -5.2540     5.9440 ca         1 T3T       0.053100
      3 C15          2.7540    -4.9560     5.3650 ca         1 T3T      -0.085000
      4 C17         -0.4490    -5.5690     3.9310 c5         1 T3T       0.327200
      5 C01          8.3540    -2.0990     5.8690 ca         1 T3T      -0.092000
      6 C02          8.1450    -2.1370     4.5010 ca         1 T3T      -0.248300
      7 C03          7.4900    -3.2420     3.9740 ca         1 T3T       0.402200
      8 C05          7.2540    -4.2210     6.0240 ca         1 T3T       0.406600
      9 C06          7.9000    -3.1570     6.6430 ca         1 T3T      -0.247300
     10 C07          6.7550    -5.3960     6.8290 c3         1 T3T       0.117500
     11 C09          4.4670    -4.6760     7.1750 c3         1 T3T       0.208100
     12 C11          2.0250    -5.0200     7.6710 ca         1 T3T      -0.129000
     13 C12          0.6870    -5.2020     7.2900 ca         1 T3T      -0.120000
     14 C14          1.4450    -5.1330     5.0050 ca         1 T3T       0.045100
     15 N04          7.0560    -4.2580     4.7070 nb         1 T3T      -0.643000
     16 N08          5.3520    -5.6580     6.5780 n7         1 T3T      -0.796200
     17 O16          0.9110    -5.1980     3.7600 os         1 T3T      -0.319900
     18 O18         -0.7580    -5.3970     5.3060 os         1 T3T      -0.322900
     19 H1           3.5420    -4.8650     4.6280 ha         1 T3T       0.172000
     20 H2          -1.0870    -4.9240     3.3250 h2         1 T3T       0.062200
     21 H3          -0.5880    -6.6180     3.6460 h2         1 T3T       0.062200
     22 H5           8.4750    -1.3370     3.8540 ha         1 T3T       0.141000
     23 H6           7.3100    -3.3080     2.9060 h4         1 T3T       0.019100
     24 H7           8.0370    -3.1570     7.7160 ha         1 T3T       0.137000
     25 H8           6.9820    -5.2210     7.8910 h1         1 T3T       0.040700
     26 H9           7.3190    -6.2850     6.5330 h1         1 T3T       0.040700
     27 H10          4.5190    -4.6610     8.2740 h1         1 T3T       0.037200
     28 H11          4.7940    -3.6850     6.8450 h1         1 T3T       0.037200
     29 H12          2.2640    -4.9810     8.7260 ha         1 T3T       0.132000
     30 H13         -0.0990    -5.2990     8.0260 ha         1 T3T       0.150000
     31 H14          5.1160    -6.5790     6.9250 hn         1 T3T       0.363800
     32 H4           8.8560    -1.2570     6.3300 ha         1 T3T       0.136000
@<TRIPOS>BOND
     1     1     3 ar  
     2     1    11 1   
     3     1    12 ar  
     4     2    13 ar  
     5     2    14 ar  
     6     2    18 1   
     7     3    14 ar  
     8     3    19 1   
     9     4    17 1   
    10     4    18 1   
    11     4    20 1   
    12     4    21 1   
    13     5     6 ar  
    14     5     9 ar  
    15     5    32 1   
    16     6     7 ar  
    17     6    22 1   
    18     7    15 ar  
    19     7    23 1   
    20     8     9 ar  
    21     8    10 1   
    22     8    15 ar  
    23     9    24 1   
    24    10    16 1   
    25    10    25 1   
    26    10    26 1   
    27    11    16 1   
    28    11    27 1   
    29    11    28 1   
    30    12    13 ar  
    31    12    29 1   
    32    13    30 1   
    33    14    17 1   
    34    16    31 1   
@<TRIPOS>SUBSTRUCTURE
     1 T3T         1 TEMP              0 ****  ****    0 ROOT
