@<TRIPOS>MOLECULE
T3T
   32    34     1     0     0
SMALL
No Charge or Current Charge


@<TRIPOS>ATOM
      1 C10          2.9950    -4.8380     6.5830 ca         1 T3T      -0.088300
      2 C13          0.3220    -5.4560     6.0650 ca         1 T3T       0.053100
      3 C15          2.4910    -4.7550     5.2630 ca         1 T3T      -0.067000
      4 C17         -0.8480    -5.5120     4.1890 c5         1 T3T       0.373600
      5 C01          8.1190    -1.9190     5.8900 ca         1 T3T      -0.074000
      6 C02          8.6270    -2.1790     4.6080 ca         1 T3T      -0.165000
      7 C03          8.5160    -3.4750     4.0760 ca         1 T3T       0.336900
      8 C05          7.4370    -4.2510     5.9850 ca         1 T3T       0.341300
      9 C06          7.5160    -2.9780     6.5870 ca         1 T3T      -0.164000
     10 C07          6.7830    -5.4310     6.7320 c3         1 T3T       0.117500
     11 C09          4.4510    -4.4970     6.8620 c3         1 T3T       0.208100
     12 C11          2.1350    -5.2360     7.6390 ca         1 T3T      -0.111000
     13 C12          0.7820    -5.5480     7.3840 ca         1 T3T      -0.102000
     14 C14          1.1450    -5.0740     5.0440 ca         1 T3T       0.045100
     15 N04          7.9360    -4.4980     4.7450 nb         1 T3T      -0.643000
     16 N08          5.3260    -5.6150     6.4630 n7         1 T3T      -0.851400
     17 O16          0.5050    -5.0390     3.8470 os         1 T3T      -0.343100
     18 O18         -0.9430    -5.7110     5.6450 os         1 T3T      -0.346100
     19 H1           3.1300    -4.4540     4.4360 ha         1 T3T       0.154000
     20 H2          -1.5880    -4.7690     3.8700 h2         1 T3T       0.062200
     21 H3          -1.0320    -6.4670     3.6830 h2         1 T3T       0.062200
     22 H5           9.1030    -1.3920     4.0280 ha         1 T3T       0.123000
     23 H6           8.9040    -3.7020     3.0840 h4         1 T3T       0.019100
     24 H7           7.1100    -2.8190     7.5820 ha         1 T3T       0.119000
     25 H8           6.9470    -5.2890     7.8090 h1         1 T3T       0.040700
     26 H9           7.3210    -6.3480     6.4570 h1         1 T3T       0.040700
     27 H10          4.5730    -4.2770     7.9320 h1         1 T3T       0.037200
     28 H11          4.7120    -3.5840     6.3090 h1         1 T3T       0.037200
     29 H12          2.5160    -5.3020     8.6560 ha         1 T3T       0.114000
     30 H13          0.1140    -5.8520     8.1860 ha         1 T3T       0.132000
     31 H14          5.0070    -6.4500     6.9700 hn         1 T3T       0.419000
     32 H4           8.1900    -0.9260     6.3300 ha         1 T3T       0.118000
@<TRIPOS>BOND
     1     1     3 ar  
     2     1    11 1   
     3     1    12 ar  
     4     2    13 ar  
     5     2    14 ar  
     6     2    18 1   
     7     3    14 ar  
     8     3    19 1   
     9     4    17 1   
    10     4    18 1   
    11     4    20 1   
    12     4    21 1   
    13     5     6 ar  
    14     5     9 ar  
    15     5    32 1   
    16     6     7 ar  
    17     6    22 1   
    18     7    15 ar  
    19     7    23 1   
    20     8     9 ar  
    21     8    10 1   
    22     8    15 ar  
    23     9    24 1   
    24    10    16 1   
    25    10    25 1   
    26    10    26 1   
    27    11    16 1   
    28    11    27 1   
    29    11    28 1   
    30    12    13 ar  
    31    12    29 1   
    32    13    30 1   
    33    14    17 1   
    34    16    31 1   
@<TRIPOS>SUBSTRUCTURE
     1 T3T         1 TEMP              0 ****  ****    0 ROOT
