@<TRIPOS>MOLECULE
T3U
   53    56     1     0     0
SMALL
abcg2


@<TRIPOS>ATOM
      1 C12         -7.3850   -12.7590    18.5930 ca         1 T3U       0.239900
      2 C13         -6.4340   -13.4200    20.5560 ca         1 T3U       0.247900
      3 N3          -5.4910   -14.2020    18.5190 nb         1 T3U      -0.655000
      4 C3          -6.6760    -7.5310    14.1000 ca         1 T3U      -0.140600
      5 C2          -5.8880    -6.6820    15.0370 c          1 T3U       0.649700
      6 C1          -1.7900    -5.2010    13.5360 c3         1 T3U       0.189600
      7 C4          -7.0080    -8.8100    14.5920 ca         1 T3U      -0.080000
      8 C5          -7.6980    -9.7510    13.8450 cp         1 T3U      -0.004000
      9 C6          -8.0040   -11.0780    14.4160 cp         1 T3U      -0.014000
     10 C7          -9.2340   -11.7070    14.1930 ca         1 T3U      -0.087000
     11 N2          -7.3790   -12.7220    19.9200 nb         1 T3U      -0.604000
     12 C10         -7.3550   -12.9580    15.7920 ca         1 T3U       0.093100
     13 O1          -2.9250    -5.8490    16.1470 o          1 T3U      -0.534000
     14 C9          -8.5800   -13.5760    15.5540 ca         1 T3U       0.109000
     15 O2          -6.1230    -6.6090    16.2330 o          1 T3U      -0.537100
     16 C8          -9.5210   -12.9430    14.7540 ca         1 T3U      -0.097000
     17 N1          -4.8230    -6.0140    14.4680 ns         1 T3U      -0.612300
     18 C11         -6.4290   -13.5120    17.8990 ca         1 T3U       0.529300
     19 O3          -6.3770   -13.5940    16.5400 os         1 T3U      -0.342400
     20 CL          -8.9280   -15.1260    16.2650 cl         1 T3U      -0.173000
     21 C14         -5.4920   -14.1560    19.8530 ca         1 T3U       0.324900
     22 C15         -7.0680   -11.7300    15.2250 ca         1 T3U      -0.093000
     23 C16         -8.0820    -9.3790    12.5370 ca         1 T3U      -0.056800
     24 C19         -7.7650    -8.0710    12.0750 ca         1 T3U      -0.063200
     25 N4          -8.2470    -7.9660    10.7900 na         1 T3U      -0.229700
     26 C18         -8.8240    -9.1530    10.4210 cc         1 T3U      -0.145100
     27 C17         -8.7480   -10.0460    11.4590 cd         1 T3U      -0.246200
     28 C20         -7.0690    -7.1160    12.8220 ca         1 T3U      -0.046300
     29 C21         -6.8380    -5.7470    12.2400 c3         1 T3U      -0.051800
     30 S           -3.7560    -5.0220    15.3160 s6         1 T3U       1.340900
     31 O           -4.5330    -3.9820    15.9280 o          1 T3U      -0.534000
     32 N           -2.8540    -4.3860    14.1360 n3         1 T3U      -0.787500
     33 C           -3.4880    -3.4210    13.2270 c3         1 T3U       0.189600
     34 H1          -8.1460   -12.1920    18.0740 h4         1 T3U       0.040100
     35 H2          -6.4280   -13.3910    21.6390 h4         1 T3U       0.034100
     36 H3          -1.3470    -5.8450    14.2870 h1         1 T3U       0.054033
     37 H4          -2.1730    -5.8040    12.7070 h1         1 T3U       0.054033
     38 H5          -1.0300    -4.5200    13.1550 h1         1 T3U       0.054033
     39 H6          -6.7090    -9.0500    15.6030 ha         1 T3U       0.136000
     40 H7          -9.9880   -11.2180    13.5940 ha         1 T3U       0.130000
     41 H8         -10.4780   -13.4160    14.5800 ha         1 T3U       0.135000
     42 H9          -4.5430    -6.2560    13.5270 hn         1 T3U       0.322500
     43 H10         -4.7230   -14.7190    20.3680 h4         1 T3U       0.034100
     44 H11         -6.0970   -11.2920    15.4150 ha         1 T3U       0.140000
     45 H12         -8.1500    -7.1640    10.1900 hn         1 T3U       0.353000
     46 H13         -9.2470    -9.2710     9.4370 h4         1 T3U       0.218000
     47 H14         -9.1210   -11.0540    11.4440 ha         1 T3U       0.212000
     48 H15         -7.7140    -5.4240    11.6760 hc         1 T3U       0.046700
     49 H16         -6.6400    -5.0020    13.0050 hc         1 T3U       0.046700
     50 H17         -5.9910    -5.7500    11.5470 hc         1 T3U       0.046700
     51 H18         -4.2280    -2.8370    13.7640 h1         1 T3U       0.054033
     52 H19         -2.7100    -2.7560    12.8540 h1         1 T3U       0.054033
     53 H20         -3.9610    -3.9290    12.3820 h1         1 T3U       0.054033
@<TRIPOS>BOND
     1     1    11 ar  
     2     1    18 ar  
     3     1    34 1   
     4     2    11 ar  
     5     2    21 ar  
     6     2    35 1   
     7     3    18 ar  
     8     3    21 ar  
     9     4     5 1   
    10     4     7 ar  
    11     4    28 ar  
    12     5    15 2   
    13     5    17 1   
    14     6    32 1   
    15     6    36 1   
    16     6    37 1   
    17     6    38 1   
    18     7     8 ar  
    19     7    39 1   
    20     8     9 1   
    21     8    23 ar  
    22     9    10 ar  
    23     9    22 ar  
    24    10    16 ar  
    25    10    40 1   
    26    12    14 ar  
    27    12    19 1   
    28    12    22 ar  
    29    13    30 2   
    30    14    16 ar  
    31    14    20 1   
    32    16    41 1   
    33    17    30 1   
    34    17    42 1   
    35    18    19 1   
    36    21    43 1   
    37    22    44 1   
    38    23    24 ar  
    39    23    27 1   
    40    24    25 1   
    41    24    28 ar  
    42    25    26 1   
    43    25    45 1   
    44    26    27 2   
    45    26    46 1   
    46    27    47 1   
    47    28    29 1   
    48    29    48 1   
    49    29    49 1   
    50    29    50 1   
    51    30    31 2   
    52    30    32 1   
    53    32    33 1   
    54    33    51 1   
    55    33    52 1   
    56    33    53 1   
@<TRIPOS>SUBSTRUCTURE
     1 T3U         1 TEMP              0 ****  ****    0 ROOT
