@<TRIPOS>MOLECULE
T3U
   53    56     1     0     0
SMALL
No Charge or Current Charge


@<TRIPOS>ATOM
      1 C12         -7.4300   -13.0490    18.7810 ca         1 T3U       0.239900
      2 C13         -6.7270   -14.1240    20.6880 ca         1 T3U       0.247900
      3 N3          -5.7120   -14.7620    18.5610 nb         1 T3U      -0.655000
      4 C3          -6.4630    -7.4670    14.1480 ca         1 T3U      -0.140600
      5 C2          -5.6740    -6.5440    15.0600 c          1 T3U       0.649700
      6 C1          -2.0480    -4.9320    13.1540 c3         1 T3U       0.189600
      7 C4          -6.8460    -8.7260    14.6910 ca         1 T3U      -0.080000
      8 C5          -7.5570    -9.6970    13.9430 cp         1 T3U      -0.004000
      9 C6          -7.9410   -11.0100    14.5430 cp         1 T3U      -0.014000
     10 C7          -9.2450   -11.5380    14.3780 ca         1 T3U      -0.087000
     11 N2          -7.5420   -13.1850    20.1350 nb         1 T3U      -0.604000
     12 C10         -7.3710   -12.9820    15.8930 ca         1 T3U       0.093100
     13 O1          -2.7750    -5.4420    16.0360 o          1 T3U      -0.534000
     14 C9          -8.6700   -13.5010    15.7000 ca         1 T3U       0.109000
     15 O2          -5.8420    -6.5480    16.2700 o          1 T3U      -0.537100
     16 C8          -9.6050   -12.7730    14.9470 ca         1 T3U      -0.097000
     17 N1          -4.7710    -5.7240    14.4730 ns         1 T3U      -0.612300
     18 C11         -6.5260   -13.8340    17.9930 ca         1 T3U       0.529300
     19 O3          -6.4290   -13.6680    16.6260 os         1 T3U      -0.342400
     20 Cl          -9.1480   -15.0540    16.3870 cl         1 T3U      -0.173000
     21 C14         -5.8240   -14.8990    19.9110 ca         1 T3U       0.324900
     22 C15         -7.0130   -11.7530    15.3140 ca         1 T3U      -0.093000
     23 C16         -7.8650    -9.3510    12.6130 ca         1 T3U      -0.056800
     24 C19         -7.5290    -8.1370    12.0720 ca         1 T3U      -0.063200
     25 N4          -7.9710    -8.0870    10.7530 na         1 T3U      -0.229700
     26 C18         -8.5980    -9.2950    10.3940 cc         1 T3U      -0.145100
     27 C17         -8.5250   -10.0630    11.5430 cd         1 T3U      -0.246200
     28 C20         -6.8400    -7.1470    12.8030 ca         1 T3U      -0.046300
     29 C21         -6.5880    -5.7840    12.1530 c3         1 T3U      -0.051800
     30 S           -3.7430    -4.6800    15.2450 s6         1 T3U       1.340900
     31 O           -4.5210    -3.6090    15.8730 o          1 T3U      -0.534000
     32 N           -2.8910    -3.9900    13.9230 n3         1 T3U      -0.787500
     33 C           -3.6880    -3.0900    13.0610 c3         1 T3U       0.189600
     34 H1          -8.0710   -12.2970    18.3240 h4         1 T3U       0.040100
     35 H2          -6.7910   -14.2590    21.7670 h4         1 T3U       0.034100
     36 H3          -1.3560    -5.4740    13.8120 h1         1 T3U       0.054033
     37 H4          -2.6560    -5.6690    12.6130 h1         1 T3U       0.054033
     38 H5          -1.4400    -4.3920    12.4160 h1         1 T3U       0.054033
     39 H6          -6.5810    -8.9620    15.7190 ha         1 T3U       0.136000
     40 H7          -9.9860   -10.9780    13.8120 ha         1 T3U       0.130000
     41 H8         -10.6090   -13.1640    14.8040 ha         1 T3U       0.135000
     42 H9          -4.6030    -5.7810    13.4880 hn         1 T3U       0.322500
     43 H10         -5.1820   -15.6410    20.3830 h4         1 T3U       0.034100
     44 H11         -6.0040   -11.3750    15.4560 ha         1 T3U       0.140000
     45 H12         -7.8450    -7.2920    10.1340 hn         1 T3U       0.353000
     46 H13         -9.0120    -9.4950     9.4080 h4         1 T3U       0.218000
     47 H14         -8.9030   -11.0800    11.6130 ha         1 T3U       0.212000
     48 H15         -7.3010    -5.5760    11.3470 hc         1 T3U       0.046700
     49 H16         -6.7070    -4.9640    12.8700 hc         1 T3U       0.046700
     50 H17         -5.5840    -5.7310    11.7170 hc         1 T3U       0.046700
     51 H18         -4.1620    -2.2920    13.6490 h1         1 T3U       0.054033
     52 H19         -3.0480    -2.6050    12.3110 h1         1 T3U       0.054033
     53 H20         -4.4760    -3.6370    12.5280 h1         1 T3U       0.054033
@<TRIPOS>BOND
     1     1    11 ar  
     2     1    18 ar  
     3     1    34 1   
     4     2    11 ar  
     5     2    21 ar  
     6     2    35 1   
     7     3    18 ar  
     8     3    21 ar  
     9     4     5 1   
    10     4     7 ar  
    11     4    28 ar  
    12     5    15 2   
    13     5    17 1   
    14     6    32 1   
    15     6    36 1   
    16     6    37 1   
    17     6    38 1   
    18     7     8 ar  
    19     7    39 1   
    20     8     9 1   
    21     8    23 ar  
    22     9    10 ar  
    23     9    22 ar  
    24    10    16 ar  
    25    10    40 1   
    26    12    14 ar  
    27    12    19 1   
    28    12    22 ar  
    29    13    30 2   
    30    14    16 ar  
    31    14    20 1   
    32    16    41 1   
    33    17    30 1   
    34    17    42 1   
    35    18    19 1   
    36    21    43 1   
    37    22    44 1   
    38    23    24 ar  
    39    23    27 1   
    40    24    25 1   
    41    24    28 ar  
    42    25    26 1   
    43    25    45 1   
    44    26    27 2   
    45    26    46 1   
    46    27    47 1   
    47    28    29 1   
    48    29    48 1   
    49    29    49 1   
    50    29    50 1   
    51    30    31 2   
    52    30    32 1   
    53    32    33 1   
    54    33    51 1   
    55    33    52 1   
    56    33    53 1   
@<TRIPOS>SUBSTRUCTURE
     1 T3U         1 TEMP              0 ****  ****    0 ROOT
