@<TRIPOS>MOLECULE
T3V
   34    35     1     0     0
SMALL
bcc


@<TRIPOS>ATOM
      1 N1          -3.0130    -0.0140    -0.0810 n          1 T3V      -0.486800
      2 C4           2.6210     0.9930    -0.9250 ca         1 T3V      -0.011000
      3 C5           2.1180     0.1710     0.0810 ca         1 T3V      -0.349500
      4 C6          -1.0000    -0.7400     1.0930 c6         1 T3V       0.173300
      5 C7          -2.5170    -0.6650     1.1150 c6         1 T3V       0.099000
      6 C8          -2.4600     1.3080    -0.2730 c6         1 T3V       0.099000
      7 C10         -3.8950    -0.6280    -0.9050 c          1 T3V       0.677100
      8 N           -0.4630     0.6100     0.9260 n3         1 T3V      -0.720500
      9 C            2.4130    -1.1870     0.0470 ca         1 T3V       0.230900
     10 O            1.3490     0.1980     2.6040 o          1 T3V      -0.596800
     11 C1           3.1870    -1.7320    -0.9570 ca         1 T3V      -0.192000
     12 C11         -4.3450     0.1350    -2.1280 c3         1 T3V      -0.177100
     13 C2           3.6790    -0.9010    -1.9530 ca         1 T3V      -0.048000
     14 C3           3.3970     0.4580    -1.9400 ca         1 T3V      -0.167000
     15 C9          -0.9400     1.2600    -0.2950 c6         1 T3V       0.173300
     16 F            1.9370    -1.9990     0.9930 f          1 T3V      -0.121900
     17 O1           1.3080     2.3270     1.2820 o          1 T3V      -0.596800
     18 O2          -4.3180    -1.7520    -0.6740 o          1 T3V      -0.598100
     19 S            1.1050     0.8910     1.3540 sy         1 T3V       1.306200
     20 H5          -0.6600    -1.1630     2.0360 h1         1 T3V       0.064450
     21 H4          -0.6800    -1.3970     0.2770 h1         1 T3V       0.064450
     22 H7          -2.8430    -0.1060     1.9970 h1         1 T3V       0.065950
     23 H6          -2.9220    -1.6700     1.1850 h1         1 T3V       0.065950
     24 H9          -2.8000     1.7460    -1.2070 h1         1 T3V       0.065950
     25 H8          -2.7890     1.9640     0.5390 h1         1 T3V       0.065950
     26 H            3.4020    -2.7920    -0.9530 ha         1 T3V       0.157000
     27 H14         -3.5110     0.3550    -2.7960 hc         1 T3V       0.061367
     28 H12         -5.0670    -0.4680    -2.6720 hc         1 T3V       0.061367
     29 H13         -4.8150     1.0840    -1.8670 hc         1 T3V       0.061367
     30 H1           4.2850    -1.3240    -2.7420 ha         1 T3V       0.141000
     31 H2           3.7840     1.1040    -2.7150 ha         1 T3V       0.144000
     32 H11         -0.5980     0.7210    -1.1870 h1         1 T3V       0.064450
     33 H10         -0.5690     2.2820    -0.3460 h1         1 T3V       0.064450
     34 H3           2.4110     2.0530    -0.9120 ha         1 T3V       0.160000
@<TRIPOS>BOND
     1     1     5 1   
     2     1     6 1   
     3     1     7 1   
     4     2     3 ar  
     5     2    14 ar  
     6     2    34 1   
     7     3     9 ar  
     8     3    19 1   
     9     4     5 1   
    10     4     8 1   
    11     4    20 1   
    12     4    21 1   
    13     5    22 1   
    14     5    23 1   
    15     6    15 1   
    16     6    24 1   
    17     6    25 1   
    18     7    12 1   
    19     7    18 2   
    20     8    15 1   
    21     8    19 1   
    22     9    11 ar  
    23     9    16 1   
    24    10    19 2   
    25    11    13 ar  
    26    11    26 1   
    27    12    27 1   
    28    12    28 1   
    29    12    29 1   
    30    13    14 ar  
    31    13    30 1   
    32    14    31 1   
    33    15    32 1   
    34    15    33 1   
    35    17    19 2   
@<TRIPOS>SUBSTRUCTURE
     1 T3V         1 TEMP              0 ****  ****    0 ROOT
