@<TRIPOS>MOLECULE
T3V
   34    35     1     0     0
SMALL
No Charge or Current Charge


@<TRIPOS>ATOM
      1 N1          -2.9220    -0.1950    -0.3660 n          1 T3V      -0.419800
      2 C4           2.5960     1.0260    -0.8810 ca         1 T3V       0.007000
      3 C5           2.1600     0.2280     0.2000 ca         1 T3V      -0.349500
      4 C6          -0.8450    -0.7510     1.0450 c6         1 T3V       0.173300
      5 C7          -2.3700    -0.9210     0.8200 c6         1 T3V       0.099000
      6 C8          -2.3070     1.1480    -0.6150 c6         1 T3V       0.099000
      7 C10         -4.2300    -0.4930    -0.8090 c          1 T3V       0.610100
      8 N           -0.4290     0.6720     0.9990 n3         1 T3V      -0.720500
      9 C            2.5120    -1.1350     0.2380 ca         1 T3V       0.266000
     10 O            1.3540     0.2590     2.7660 o          1 T3V      -0.526000
     11 C1           3.2820    -1.6950    -0.7940 ca         1 T3V      -0.174000
     12 C11         -4.8000     0.2780    -2.0010 c3         1 T3V      -0.177100
     13 C2           3.7120    -0.9010    -1.8700 ca         1 T3V      -0.030000
     14 C3           3.3670     0.4590    -1.9100 ca         1 T3V      -0.149000
     15 C9          -0.7850     1.2380    -0.3240 c6         1 T3V       0.173300
     16 F            2.1140    -1.9420     1.2460 f          1 T3V      -0.157000
     17 O1           1.3310     2.4380     1.4550 o          1 T3V      -0.526000
     18 O2          -4.8810    -1.3920    -0.2910 o          1 T3V      -0.598100
     19 S            1.1730     0.9800     1.5020 sy         1 T3V       1.164600
     20 H5          -0.5960    -1.2070     2.0140 h1         1 T3V       0.064450
     21 H4          -0.3170    -1.3300     0.2730 h1         1 T3V       0.064450
     22 H7          -2.8930    -0.5600     1.7170 h1         1 T3V       0.065950
     23 H6          -2.5880    -1.9940     0.7310 h1         1 T3V       0.065950
     24 H9          -2.4630     1.4510    -1.6590 h1         1 T3V       0.065950
     25 H8          -2.8240     1.8840     0.0170 h1         1 T3V       0.065950
     26 H            3.5440    -2.7490    -0.7580 ha         1 T3V       0.139000
     27 H14         -4.0740     0.2650    -2.8210 hc         1 T3V       0.061367
     28 H12         -5.7750    -0.1070    -2.3210 hc         1 T3V       0.061367
     29 H13         -4.8620     1.3420    -1.7460 hc         1 T3V       0.061367
     30 H1           4.3090    -1.3380    -2.6680 ha         1 T3V       0.123000
     31 H2           3.6990     1.0780    -2.7410 ha         1 T3V       0.126000
     32 H11         -0.2480     0.7080    -1.1250 h1         1 T3V       0.064450
     33 H10         -0.4920     2.2960    -0.3910 h1         1 T3V       0.064450
     34 H3           2.3410     2.0840    -0.9320 ha         1 T3V       0.142000
@<TRIPOS>BOND
     1     1     5 1   
     2     1     6 1   
     3     1     7 1   
     4     2     3 ar  
     5     2    14 ar  
     6     2    34 1   
     7     3     9 ar  
     8     3    19 1   
     9     4     5 1   
    10     4     8 1   
    11     4    20 1   
    12     4    21 1   
    13     5    22 1   
    14     5    23 1   
    15     6    15 1   
    16     6    24 1   
    17     6    25 1   
    18     7    12 1   
    19     7    18 2   
    20     8    15 1   
    21     8    19 1   
    22     9    11 ar  
    23     9    16 1   
    24    10    19 2   
    25    11    13 ar  
    26    11    26 1   
    27    12    27 1   
    28    12    28 1   
    29    12    29 1   
    30    13    14 ar  
    31    13    30 1   
    32    14    31 1   
    33    15    32 1   
    34    15    33 1   
    35    17    19 2   
@<TRIPOS>SUBSTRUCTURE
     1 T3V         1 TEMP              0 ****  ****    0 ROOT
