@<TRIPOS>MOLECULE
T3W
   25    27     1     0     0
SMALL
abcg2


@<TRIPOS>ATOM
      1 C1         -32.1820     8.9920    -8.5430 ca         1 T3W      -0.096000
      2 C2         -33.4430     6.9690    -8.2910 ca         1 T3W      -0.096000
      3 C3         -32.7940     9.2310    -9.7620 ca         1 T3W      -0.083000
      4 C7         -31.3940     5.6490    -3.5230 c6         1 T3W      -0.225000
      5 C8         -30.8580     8.3090    -5.8910 cc         1 T3W      -0.149000
      6 C9         -30.3540     6.0760    -2.5520 c2         1 T3W       0.512200
      7 C10        -31.8440     7.5980    -6.5080 cd         1 T3W       0.294500
      8 C11        -31.4470     6.5530    -4.6880 cc         1 T3W       0.421800
      9 C12        -29.6790     7.9560    -3.7260 c          1 T3W       0.666200
     10 C4         -34.0630     7.1960    -9.5100 ca         1 T3W      -0.083000
     11 C5         -32.4930     7.8580    -7.7900 ca         1 T3W      -0.092500
     12 C6         -33.7330     8.3270   -10.2410 ca         1 T3W       0.197000
     13 N13        -29.5940     7.0940    -2.6340 ne         1 T3W      -0.620100
     14 N14        -32.1960     6.5060    -5.7400 nd         1 T3W      -0.645000
     15 N15        -30.6070     7.6320    -4.7210 n          1 T3W      -0.183300
     16 O16        -28.9910     8.9340    -3.8220 o          1 T3W      -0.439000
     17 I17        -34.6650     8.6790   -12.0910 i          1 T3W      -0.315000
     18 H1         -31.4550     9.7090    -8.1840 ha         1 T3W       0.125000
     19 H2         -33.7030     6.0830    -7.7270 ha         1 T3W       0.125000
     20 H3         -32.5340    10.1190   -10.3220 ha         1 T3W       0.127000
     21 H5         -31.1910     4.6160    -3.8230 hc         1 T3W       0.103700
     22 H6         -30.3240     9.2030    -6.1640 h4         1 T3W       0.182000
     23 H7         -30.2350     5.4460    -1.6750 h4         1 T3W       0.040800
     24 H8         -34.7940     6.4880    -9.8750 ha         1 T3W       0.127000
     25 H4         -32.3570     5.6130    -3.0010 hc         1 T3W       0.103700
@<TRIPOS>BOND
     1     1     3 ar  
     2     1    11 ar  
     3     1    18 1   
     4     2    10 ar  
     5     2    11 ar  
     6     2    19 1   
     7     3    12 ar  
     8     3    20 1   
     9     4     6 1   
    10     4     8 1   
    11     4    21 1   
    12     4    25 1   
    13     5     7 2   
    14     5    15 1   
    15     5    22 1   
    16     6    13 2   
    17     6    23 1   
    18     7    11 1   
    19     7    14 1   
    20     8    14 2   
    21     8    15 1   
    22     9    13 1   
    23     9    15 1   
    24     9    16 2   
    25    10    12 ar  
    26    10    24 1   
    27    12    17 1   
@<TRIPOS>SUBSTRUCTURE
     1 T3W         1 TEMP              0 ****  ****    0 ROOT
