@<TRIPOS>MOLECULE
T3W
   25    27     1     0     0
SMALL
No Charge or Current Charge


@<TRIPOS>ATOM
      1 C1         -32.1490     8.9600    -8.5510 ca         1 T3W      -0.096000
      2 C2         -33.5140     6.9590    -8.3230 ca         1 T3W      -0.096000
      3 C3         -32.7600     9.2320    -9.7890 ca         1 T3W      -0.083000
      4 C7         -31.3410     5.6120    -3.4820 c6         1 T3W      -0.225000
      5 C8         -30.9070     8.2580    -5.8620 cc         1 T3W      -0.149000
      6 C9         -30.3170     6.0950    -2.4840 c2         1 T3W       0.512200
      7 C10        -31.8800     7.5320    -6.5030 cd         1 T3W       0.294500
      8 C11        -31.4050     6.5390    -4.6440 cc         1 T3W       0.421800
      9 C12        -29.6760     8.0090    -3.7090 c          1 T3W       0.666200
     10 C4         -34.1220     7.2340    -9.5610 ca         1 T3W      -0.083000
     11 C5         -32.5200     7.8190    -7.8040 ca         1 T3W      -0.092500
     12 C6         -33.7450     8.3690   -10.2920 ca         1 T3W       0.197000
     13 N13        -29.5840     7.1650    -2.6010 ne         1 T3W      -0.620100
     14 N14        -32.1950     6.4210    -5.7060 nd         1 T3W      -0.645000
     15 N15        -30.6060     7.6320    -4.6860 n          1 T3W      -0.183300
     16 O16        -28.9950     9.0140    -3.8310 o          1 T3W      -0.439000
     17 I17        -34.6820     8.7910   -12.1990 i          1 T3W      -0.315000
     18 H1         -31.3880     9.6420    -8.1810 ha         1 T3W       0.125000
     19 H2         -33.8200     6.0730    -7.7700 ha         1 T3W       0.125000
     20 H3         -32.4700    10.1110   -10.3590 ha         1 T3W       0.127000
     21 H5         -31.0740     4.6010    -3.8110 hc         1 T3W       0.103700
     22 H6         -30.3850     9.1710    -6.1180 h4         1 T3W       0.182000
     23 H7         -30.1900     5.4870    -1.5920 h4         1 T3W       0.040800
     24 H8         -34.8860     6.5680    -9.9540 ha         1 T3W       0.127000
     25 H4         -32.3190     5.5430    -2.9900 hc         1 T3W       0.103700
@<TRIPOS>BOND
     1     1     3 ar  
     2     1    11 ar  
     3     1    18 1   
     4     2    10 ar  
     5     2    11 ar  
     6     2    19 1   
     7     3    12 ar  
     8     3    20 1   
     9     4     6 1   
    10     4     8 1   
    11     4    21 1   
    12     4    25 1   
    13     5     7 2   
    14     5    15 1   
    15     5    22 1   
    16     6    13 2   
    17     6    23 1   
    18     7    11 1   
    19     7    14 1   
    20     8    14 2   
    21     8    15 1   
    22     9    13 1   
    23     9    15 1   
    24     9    16 2   
    25    10    12 ar  
    26    10    24 1   
    27    12    17 1   
@<TRIPOS>SUBSTRUCTURE
     1 T3W         1 TEMP              0 ****  ****    0 ROOT
