@<TRIPOS>MOLECULE
T3X
   66    70     1     0     0
SMALL
abcg2


@<TRIPOS>ATOM
      1 C13        142.5400   134.8070   141.1270 ca         1 T3X      -0.155300
      2 C15        142.6550   134.5270   138.7630 ca         1 T3X      -0.066000
      3 C17        143.6210   136.6420   139.6610 c3         1 T3X       0.211100
      4 C20        143.0030   139.5710   137.3970 c6         1 T3X       0.166800
      5 C11        141.6130   132.8210   140.1130 ca         1 T3X      -0.023000
      6 C12        141.8910   133.5780   141.2490 ca         1 T3X      -0.098000
      7 C14        142.9260   135.3150   139.8830 ca         1 T3X      -0.060300
      8 C16        142.0150   133.3090   138.8640 ca         1 T3X      -0.145000
      9 C19        143.8220   138.5350   138.1800 c6         1 T3X       0.166800
     10 N10        140.9490   131.5870   140.1310 ns         1 T3X      -0.144000
     11 C02        138.1560   127.3350   140.2580 ca         1 T3X      -0.028300
     12 C03        138.6390   127.6010   141.5610 ca         1 T3X       0.021000
     13 C04        139.3460   128.7790   141.8170 ca         1 T3X      -0.030000
     14 C05        139.5930   129.7030   140.8070 ca         1 T3X      -0.159600
     15 C06        139.1060   129.4450   139.5240 ca         1 T3X      -0.076000
     16 C07        138.4010   128.2770   139.2640 ca         1 T3X      -0.122000
     17 C08        140.3350   130.9520   141.1710 c          1 T3X       0.621700
     18 C22        140.9300   138.4010   137.7090 c6         1 T3X       0.166800
     19 C23        141.6480   137.8910   138.9650 c6         1 T3X       0.166800
     20 C24        141.2350   139.7810   135.7560 c3         1 T3X       0.154100
     21 C25        142.8230   135.5760   142.3920 c3         1 T3X       0.340300
     22 C29        138.3930   126.6760   142.6110 cg         1 T3X      -0.105000
     23 C30        138.1500   125.8750   143.4830 ch         1 T3X      -0.091000
     24 C31        137.8470   124.9420   144.5080 ca         1 T3X      -0.072000
     25 C32        137.1810   123.7490   144.2270 ca         1 T3X       0.027000
     26 C33        136.9080   122.9030   145.2980 ca         1 T3X      -0.278900
     27 C34        137.3230   123.3140   146.5890 ca         1 T3X       0.386500
     28 C37        136.2800   121.6430   145.5140 cc         1 T3X       0.373800
     29 C39        138.2130   125.2330   145.8520 ca         1 T3X       0.405900
     30 F26        142.1940   136.7790   142.4230 f          1 T3X      -0.113333
     31 F27        142.4370   134.9220   143.5050 f          1 T3X      -0.113333
     32 F28        144.1460   135.8370   142.5500 f          1 T3X      -0.113333
     33 N18        142.9780   137.4170   138.6100 n3         1 T3X      -0.715600
     34 N21        141.8860   138.9220   136.7260 n3         1 T3X      -0.709600
     35 N35        136.9400   122.3340   147.4410 na         1 T3X      -0.172100
     36 N36        136.3090   121.3210   146.7930 nd         1 T3X      -0.501100
     37 N38        137.9640   124.4470   146.8870 nb         1 T3X      -0.676000
     38 O09        140.3770   131.3580   142.3290 o          1 T3X      -0.575100
     39 H1         142.9420   134.8980   137.7890 ha         1 T3X       0.141000
     40 H2         144.6480   136.4440   139.3370 h1         1 T3X       0.048700
     41 H3         143.6980   137.2210   140.5890 h1         1 T3X       0.048700
     42 H4         143.6370   140.0480   136.6500 h1         1 T3X       0.034200
     43 H5         142.6510   140.3690   138.0730 h1         1 T3X       0.034200
     44 H6         141.6000   133.2070   142.2150 ha         1 T3X       0.167000
     45 H7         141.8150   132.7260   137.9730 ha         1 T3X       0.115000
     46 H8         144.6290   138.1330   137.5620 h1         1 T3X       0.037950
     47 H9         144.2880   139.0370   139.0440 h1         1 T3X       0.037950
     48 H10        140.9010   131.1270   139.2350 hn         1 T3X       0.154000
     49 H11        138.0030   125.1950   140.1750 hc         1 T3X       0.051367
     50 H12        136.5030   126.0050   140.5880 hc         1 T3X       0.051367
     51 H13        137.0910   126.0460   138.9170 hc         1 T3X       0.051367
     52 H14        139.7070   128.9780   142.8160 ha         1 T3X       0.145000
     53 H15        139.2390   130.1560   138.7190 ha         1 T3X       0.112000
     54 H16        138.0230   128.0970   138.2660 ha         1 T3X       0.120000
     55 H17        140.2100   139.1800   138.0090 h1         1 T3X       0.034200
     56 H18        140.3610   137.5940   137.2400 h1         1 T3X       0.034200
     57 H19        141.0770   137.0720   139.4020 h1         1 T3X       0.037950
     58 H20        141.7010   138.6850   139.7280 h1         1 T3X       0.037950
     59 H21        140.4280   139.2340   135.2630 h1         1 T3X       0.029700
     60 H22        140.7980   140.6860   136.2150 h1         1 T3X       0.029700
     61 H23        141.9530   140.0960   134.9960 h1         1 T3X       0.029700
     62 H24        136.8910   123.5030   143.2140 ha         1 T3X       0.129000
     63 H25        135.8230   120.9820   144.7950 h4         1 T3X       0.054800
     64 H26        138.7320   126.1620   146.0580 h4         1 T3X       0.033100
     65 H29        137.0730   122.2920   148.4400 hn         1 T3X       0.390000
     66 C01        137.3950   126.0780   139.9620 c3         1 T3X      -0.053800
@<TRIPOS>BOND
     1     1     6 ar  
     2     1     7 ar  
     3     1    21 1   
     4     2     7 ar  
     5     2     8 ar  
     6     2    39 1   
     7     3     7 1   
     8     3    33 1   
     9     3    40 1   
    10     3    41 1   
    11     4     9 1   
    12     4    34 1   
    13     4    42 1   
    14     4    43 1   
    15     5     6 ar  
    16     5     8 ar  
    17     5    10 1   
    18     6    44 1   
    19     8    45 1   
    20     9    33 1   
    21     9    46 1   
    22     9    47 1   
    23    10    17 1   
    24    10    48 1   
    25    11    12 ar  
    26    11    16 ar  
    27    11    66 1   
    28    12    13 ar  
    29    12    22 1   
    30    13    14 ar  
    31    13    52 1   
    32    14    15 ar  
    33    14    17 1   
    34    15    16 ar  
    35    15    53 1   
    36    16    54 1   
    37    17    38 2   
    38    18    19 1   
    39    18    34 1   
    40    18    55 1   
    41    18    56 1   
    42    19    33 1   
    43    19    57 1   
    44    19    58 1   
    45    20    34 1   
    46    20    59 1   
    47    20    60 1   
    48    20    61 1   
    49    21    30 1   
    50    21    31 1   
    51    21    32 1   
    52    22    23 3   
    53    23    24 1   
    54    24    25 ar  
    55    24    29 ar  
    56    25    26 ar  
    57    25    62 1   
    58    26    27 ar  
    59    26    28 1   
    60    27    35 1   
    61    27    37 ar  
    62    28    36 2   
    63    28    63 1   
    64    29    37 ar  
    65    29    64 1   
    66    35    36 1   
    67    35    65 1   
    68    49    66 1   
    69    50    66 1   
    70    51    66 1   
@<TRIPOS>SUBSTRUCTURE
     1 T3X         1 TEMP              0 ****  ****    0 ROOT
