@<TRIPOS>MOLECULE
T3X
   66    70     1     0     0
SMALL
No Charge or Current Charge


@<TRIPOS>ATOM
      1 C13        142.6740   134.8150   140.9530 ca         1 T3X      -0.155300
      2 C15        142.6990   134.4390   138.5370 ca         1 T3X      -0.066000
      3 C17        143.7500   136.5720   139.3430 c3         1 T3X       0.211100
      4 C20        142.9260   139.7360   137.2160 c6         1 T3X       0.166800
      5 C11        141.6880   132.7670   139.9880 ca         1 T3X      -0.023000
      6 C12        142.0050   133.5730   141.1030 ca         1 T3X      -0.098000
      7 C14        143.0250   135.2490   139.6410 ca         1 T3X      -0.060300
      8 C16        142.0370   133.2150   138.7070 ca         1 T3X      -0.145000
      9 C19        143.7600   138.6760   138.0220 c6         1 T3X       0.166800
     10 N10        141.0140   131.5150   140.0790 ns         1 T3X      -0.144000
     11 C02        138.5050   127.0270   140.2380 ca         1 T3X      -0.028300
     12 C03        138.7920   127.3850   141.5750 ca         1 T3X       0.021000
     13 C04        139.4800   128.5820   141.8520 ca         1 T3X      -0.030000
     14 C05        139.8960   129.4450   140.8120 ca         1 T3X      -0.159600
     15 C06        139.6030   129.0770   139.4770 ca         1 T3X      -0.076000
     16 C07        138.9160   127.8830   139.1990 ca         1 T3X      -0.122000
     17 C08        140.6350   130.7250   141.1580 c          1 T3X       0.621700
     18 C22        140.8180   138.8340   138.1110 c6         1 T3X       0.166800
     19 C23        141.6650   137.9160   139.0630 c6         1 T3X       0.166800
     20 C24        140.7810   140.2560   136.0760 c3         1 T3X       0.154100
     21 C25        143.0040   135.6560   142.2050 c3         1 T3X       0.340300
     22 C29        138.3940   126.5470   142.6740 cg         1 T3X      -0.105000
     23 C30        138.0500   125.8260   143.5960 ch         1 T3X      -0.091000
     24 C31        137.6400   124.9700   144.6580 ca         1 T3X      -0.072000
     25 C32        136.9790   123.7570   144.3840 ca         1 T3X       0.027000
     26 C33        136.6190   122.9910   145.4990 ca         1 T3X      -0.278900
     27 C34        136.8900   123.3900   146.7740 ca         1 T3X       0.386500
     28 C37        135.9450   121.7230   145.5930 cc         1 T3X       0.373800
     29 C39        137.8870   125.3180   146.0110 ca         1 T3X       0.405900
     30 F26        142.4310   136.8800   142.1560 f          1 T3X      -0.113333
     31 F27        142.5800   135.0890   143.3580 f          1 T3X      -0.113333
     32 F28        144.3370   135.8420   142.3460 f          1 T3X      -0.113333
     33 N18        142.9710   137.4870   138.4750 n3         1 T3X      -0.715600
     34 N21        141.5450   139.2780   136.8790 n3         1 T3X      -0.709600
     35 N35        136.3910   122.3900   147.5790 na         1 T3X      -0.172100
     36 N36        135.7960   121.3370   146.8670 nd         1 T3X      -0.501100
     37 N38        137.5190   124.5420   147.0680 nb         1 T3X      -0.676000
     38 O09        140.8760   131.0180   142.3240 o          1 T3X      -0.575100
     39 H1         142.9590   134.7690   137.5330 ha         1 T3X       0.141000
     40 H2         144.6960   136.3180   138.8440 h1         1 T3X       0.048700
     41 H3         144.0280   137.0930   140.2650 h1         1 T3X       0.048700
     42 H4         143.4770   139.9910   136.2990 h1         1 T3X       0.034200
     43 H5         142.8720   140.6570   137.8150 h1         1 T3X       0.034200
     44 H6         141.7270   133.2410   142.0970 ha         1 T3X       0.167000
     45 H7         141.7980   132.6140   137.8320 ha         1 T3X       0.115000
     46 H8         144.5960   138.3400   137.3910 h1         1 T3X       0.037950
     47 H9         144.2090   139.1850   138.8880 h1         1 T3X       0.037950
     48 H10        140.7630   131.1290   139.1800 hn         1 T3X       0.154000
     49 H11        138.3090   124.8580   140.2530 hc         1 T3X       0.051367
     50 H12        136.7640   125.7230   140.3530 hc         1 T3X       0.051367
     51 H13        137.6250   125.6190   138.8130 hc         1 T3X       0.051367
     52 H14        139.6910   128.8390   142.8880 ha         1 T3X       0.145000
     53 H15        139.8980   129.7020   138.6380 ha         1 T3X       0.112000
     54 H16        138.7040   127.6240   138.1640 ha         1 T3X       0.120000
     55 H17        140.4850   139.7080   138.6900 h1         1 T3X       0.034200
     56 H18        139.9090   138.2880   137.8200 h1         1 T3X       0.034200
     57 H19        141.0540   137.0420   139.3320 h1         1 T3X       0.037950
     58 H20        141.8470   138.4690   139.9960 h1         1 T3X       0.037950
     59 H21        139.7990   139.8490   135.8010 h1         1 T3X       0.029700
     60 H22        140.6230   141.1870   136.6380 h1         1 T3X       0.029700
     61 H23        141.3180   140.5000   135.1500 h1         1 T3X       0.029700
     62 H24        136.7610   123.4340   143.3680 ha         1 T3X       0.129000
     63 H25        135.5600   121.0680   144.8230 h4         1 T3X       0.054800
     64 H26        138.3960   126.2500   146.2570 h4         1 T3X       0.033100
     65 H29        136.4380   122.3930   148.5930 hn         1 T3X       0.390000
     66 C01        137.7610   125.7370   139.8940 c3         1 T3X      -0.053800
@<TRIPOS>BOND
     1     1     6 ar  
     2     1     7 ar  
     3     1    21 1   
     4     2     7 ar  
     5     2     8 ar  
     6     2    39 1   
     7     3     7 1   
     8     3    33 1   
     9     3    40 1   
    10     3    41 1   
    11     4     9 1   
    12     4    34 1   
    13     4    42 1   
    14     4    43 1   
    15     5     6 ar  
    16     5     8 ar  
    17     5    10 1   
    18     6    44 1   
    19     8    45 1   
    20     9    33 1   
    21     9    46 1   
    22     9    47 1   
    23    10    17 1   
    24    10    48 1   
    25    11    12 ar  
    26    11    16 ar  
    27    11    66 1   
    28    12    13 ar  
    29    12    22 1   
    30    13    14 ar  
    31    13    52 1   
    32    14    15 ar  
    33    14    17 1   
    34    15    16 ar  
    35    15    53 1   
    36    16    54 1   
    37    17    38 2   
    38    18    19 1   
    39    18    34 1   
    40    18    55 1   
    41    18    56 1   
    42    19    33 1   
    43    19    57 1   
    44    19    58 1   
    45    20    34 1   
    46    20    59 1   
    47    20    60 1   
    48    20    61 1   
    49    21    30 1   
    50    21    31 1   
    51    21    32 1   
    52    22    23 3   
    53    23    24 1   
    54    24    25 ar  
    55    24    29 ar  
    56    25    26 ar  
    57    25    62 1   
    58    26    27 ar  
    59    26    28 1   
    60    27    35 1   
    61    27    37 ar  
    62    28    36 2   
    63    28    63 1   
    64    29    37 ar  
    65    29    64 1   
    66    35    36 1   
    67    35    65 1   
    68    49    66 1   
    69    50    66 1   
    70    51    66 1   
@<TRIPOS>SUBSTRUCTURE
     1 T3X         1 TEMP              0 ****  ****    0 ROOT
