@<TRIPOS>MOLECULE
T3Y
   68    72     1     0     0
SMALL
abcg2


@<TRIPOS>ATOM
      1 O3           5.3050     0.2740     2.2220 o          1 T3Y      -0.701950
      2 S1           5.9910     0.2480     0.9180 s6         1 T3Y       1.266350
      3 O1           6.7410     1.4850     0.6380 o          1 T3Y      -0.701950
      4 O2           6.7820    -0.9780     0.7060 o          1 T3Y      -0.701950
      5 C1           4.6830     0.1920    -0.2970 ca         1 T3Y      -0.250000
      6 C24          4.2090    -1.0230    -0.7600 ca         1 T3Y       0.017500
      7 C23          3.1590    -1.0910    -1.6680 ca         1 T3Y      -0.169550
      8 C22          2.6470    -2.4450    -2.1020 c3         1 T3Y       0.046450
      9 C2           4.0870     1.3660    -0.7340 ca         1 T3Y       0.017500
     10 C3           3.0330     1.3390    -1.6340 ca         1 T3Y      -0.169550
     11 C25          2.5830     0.1030    -2.1120 ca         1 T3Y       0.156100
     12 O13          1.5870     0.1460    -3.0240 oh         1 T3Y      -0.588100
     13 C4           2.3580     2.6260    -2.0430 c3         1 T3Y       0.046450
     14 C5           1.0330     2.8200    -1.3360 ca         1 T3Y      -0.169550
     15 C6           1.0370     3.2350    -0.0100 ca         1 T3Y       0.017500
     16 C7          -0.1460     3.4210     0.6860 ca         1 T3Y      -0.250000
     17 S2          -0.1240     4.0610     2.3550 s6         1 T3Y       1.266350
     18 O4           1.1890     3.6840     2.9080 o          1 T3Y      -0.701950
     19 O5          -0.2930     5.5170     2.2040 o          1 T3Y      -0.701950
     20 O6          -1.2580     3.4170     3.0400 o          1 T3Y      -0.701950
     21 C8          -1.3570     3.1790     0.0550 ca         1 T3Y       0.017500
     22 C28         -0.1970     2.5820    -1.9520 ca         1 T3Y       0.156100
     23 O16         -0.2750     2.1880    -3.2530 oh         1 T3Y      -0.588100
     24 C9          -1.4030     2.7520    -1.2640 ca         1 T3Y      -0.169550
     25 C10         -2.7430     2.4390    -1.8950 c3         1 T3Y       0.046450
     26 C11         -3.2510     1.0670    -1.5120 ca         1 T3Y      -0.169550
     27 C12         -4.2580     0.9420    -0.5620 ca         1 T3Y       0.017500
     28 C13         -4.7190    -0.3030    -0.1650 ca         1 T3Y      -0.250000
     29 S3          -6.0940    -0.4390     0.9650 s6         1 T3Y       1.266350
     30 O7          -6.0700     0.7920     1.7770 o          1 T3Y      -0.701950
     31 O8          -7.2890    -0.5410     0.1080 o          1 T3Y      -0.701950
     32 O9          -5.8470    -1.6630     1.7500 o          1 T3Y      -0.701950
     33 C14         -4.1520    -1.4490    -0.7080 ca         1 T3Y       0.017500
     34 C27         -2.7110    -0.0980    -2.0700 ca         1 T3Y       0.156100
     35 O15         -1.7700    -0.0830    -3.0210 oh         1 T3Y      -0.588100
     36 C15         -3.1390    -1.3640    -1.6500 ca         1 T3Y      -0.169550
     37 C16         -2.4510    -2.6040    -2.1660 c3         1 T3Y       0.046450
     38 C17         -1.1150    -2.8030    -1.4840 ca         1 T3Y      -0.169550
     39 C18         -1.0980    -3.1540    -0.1380 ca         1 T3Y       0.017500
     40 C26          0.1090    -2.6270    -2.1290 ca         1 T3Y       0.156100
     41 O14          0.1210    -2.2460    -3.4470 oh         1 T3Y      -0.588100
     42 C21          1.3210    -2.7590    -1.4460 ca         1 T3Y      -0.169550
     43 C20          1.2990    -3.1210    -0.1070 ca         1 T3Y       0.017500
     44 C19          0.0940    -3.3240     0.5460 ca         1 T3Y      -0.250000
     45 S4           0.0780    -3.6980     2.2960 s6         1 T3Y       1.266350
     46 O11          1.3130    -4.4610     2.5490 o          1 T3Y      -0.701950
     47 O10          0.0650    -2.3810     2.9570 o          1 T3Y      -0.701950
     48 O12         -1.1510    -4.4760     2.5270 o          1 T3Y      -0.701950
     49 H24          4.6640    -1.9470    -0.4230 ha         1 T3Y       0.128625
     50 H22          2.6010    -2.5150    -3.1910 hc         1 T3Y       0.023825
     51 H22A         3.3760    -3.1980    -1.8010 hc         1 T3Y       0.023825
     52 H2           4.4460     2.3240    -0.3780 ha         1 T3Y       0.128625
     53 HO13         1.1860    -0.7140    -3.2470 ho         1 T3Y       0.473750
     54 H4           3.0120     3.4560    -1.7730 hc         1 T3Y       0.023825
     55 H4A          2.2500     2.6920    -3.1270 hc         1 T3Y       0.023825
     56 H6           1.9880     3.4140     0.4780 ha         1 T3Y       0.128625
     57 H8          -2.2890     3.3060     0.5950 ha         1 T3Y       0.128625
     58 HO16         0.5080     1.6570    -3.4780 ho         1 T3Y       0.473750
     59 H10         -3.4660     3.1760    -1.5430 hc         1 T3Y       0.023825
     60 H10A        -2.7120     2.5610    -2.9800 hc         1 T3Y       0.023825
     61 H12         -4.6800     1.8410    -0.1300 ha         1 T3Y       0.128625
     62 H14         -4.4910    -2.4270    -0.3870 ha         1 T3Y       0.128625
     63 HO15        -1.4300     0.8080    -3.2140 ho         1 T3Y       0.473750
     64 H16         -3.0830    -3.4680    -1.9520 hc         1 T3Y       0.023825
     65 H16A        -2.3320    -2.5680    -3.2480 hc         1 T3Y       0.023825
     66 H18         -2.0410    -3.3070     0.3740 ha         1 T3Y       0.128625
     67 HO14         0.6380    -2.8720    -3.9710 ho         1 T3Y       0.473750
     68 H20          2.2370    -3.2380     0.4230 ha         1 T3Y       0.128625
@<TRIPOS>BOND
     1     1     2 1   
     2     2     3 1   
     3     2     4 1   
     4     2     5 1   
     5     5     6 ar  
     6     5     9 ar  
     7     6     7 ar  
     8     6    49 1   
     9     7     8 1   
    10     7    11 ar  
    11     8    42 1   
    12     8    50 1   
    13     8    51 1   
    14     9    10 ar  
    15     9    52 1   
    16    10    11 ar  
    17    10    13 1   
    18    11    12 1   
    19    12    53 1   
    20    13    14 1   
    21    13    54 1   
    22    13    55 1   
    23    14    15 ar  
    24    14    22 ar  
    25    15    16 ar  
    26    15    56 1   
    27    16    17 1   
    28    16    21 ar  
    29    17    18 1   
    30    17    19 1   
    31    17    20 1   
    32    21    24 ar  
    33    21    57 1   
    34    22    23 1   
    35    22    24 ar  
    36    23    58 1   
    37    24    25 1   
    38    25    26 1   
    39    25    59 1   
    40    25    60 1   
    41    26    27 ar  
    42    26    34 ar  
    43    27    28 ar  
    44    27    61 1   
    45    28    29 1   
    46    28    33 ar  
    47    29    30 1   
    48    29    31 1   
    49    29    32 1   
    50    33    36 ar  
    51    33    62 1   
    52    34    35 1   
    53    34    36 ar  
    54    35    63 1   
    55    36    37 1   
    56    37    38 1   
    57    37    64 1   
    58    37    65 1   
    59    38    39 ar  
    60    38    40 ar  
    61    39    44 ar  
    62    39    66 1   
    63    40    41 1   
    64    40    42 ar  
    65    41    67 1   
    66    42    43 ar  
    67    43    44 ar  
    68    43    68 1   
    69    44    45 1   
    70    45    46 1   
    71    45    47 1   
    72    45    48 1   
@<TRIPOS>SUBSTRUCTURE
     1 T3Y         1 TEMP              0 ****  ****    0 ROOT
