@<TRIPOS>MOLECULE
T3Y
   68    72     1     0     0
SMALL
No Charge or Current Charge


@<TRIPOS>ATOM
      1 O3           4.1590     0.1870     2.7890 o          1 T3Y      -0.701950
      2 S1           5.1970     0.2580     1.7500 s6         1 T3Y       1.266350
      3 O1           5.8900     1.5500     1.6290 o          1 T3Y      -0.701950
      4 O2           6.0310    -0.9450     1.6010 o          1 T3Y      -0.701950
      5 C1           4.1720     0.2160     0.2130 ca         1 T3Y      -0.250000
      6 C24          3.8270    -1.0150    -0.3760 ca         1 T3Y       0.017500
      7 C23          3.0510    -1.0600    -1.5500 ca         1 T3Y      -0.169550
      8 C22          2.6870    -2.4270    -2.1430 c3         1 T3Y       0.046450
      9 C2           3.7050     1.4130    -0.3620 ca         1 T3Y       0.017500
     10 C3           2.9280     1.3920    -1.5370 ca         1 T3Y      -0.169550
     11 C25          2.6220     0.1510    -2.1370 ca         1 T3Y       0.156100
     12 O13          1.8890     0.1190    -3.2830 oh         1 T3Y      -0.588100
     13 C4           2.4060     2.7160    -2.1040 c3         1 T3Y       0.046450
     14 C5           1.0380     3.0750    -1.5140 ca         1 T3Y      -0.169550
     15 C6           0.9870     3.8500    -0.3380 ca         1 T3Y       0.017500
     16 C7          -0.2470     4.1840     0.2520 ca         1 T3Y      -0.250000
     17 S2          -0.2930     5.2320     1.7740 s6         1 T3Y       1.266350
     18 O4           0.9550     4.8520     2.4530 o          1 T3Y      -0.701950
     19 O5          -0.3120     6.5810     1.1880 o          1 T3Y      -0.701950
     20 O6          -1.5430     4.8010     2.4170 o          1 T3Y      -0.701950
     21 C8          -1.4410     3.7260    -0.3360 ca         1 T3Y       0.017500
     22 C28         -0.1700     2.6460    -2.1060 ca         1 T3Y       0.156100
     23 O16         -0.1330     1.9210    -3.2570 oh         1 T3Y      -0.588100
     24 C9          -1.4140     2.9520    -1.5130 ca         1 T3Y      -0.169550
     25 C10         -2.7360     2.4340    -2.0910 c3         1 T3Y       0.046450
     26 C11         -3.0980     1.0590    -1.5180 ca         1 T3Y      -0.169550
     27 C12         -3.8780     0.9940    -0.3460 ca         1 T3Y       0.017500
     28 C13         -4.2170    -0.2470     0.2270 ca         1 T3Y      -0.250000
     29 S3          -5.2720    -0.3220     1.7420 s6         1 T3Y       1.266350
     30 O7          -4.9650     0.9550     2.4050 o          1 T3Y      -0.701950
     31 O8          -6.6140    -0.4230     1.1480 o          1 T3Y      -0.701950
     32 O9          -4.7790    -1.5370     2.4070 o          1 T3Y      -0.701950
     33 C14         -3.7580    -1.4340    -0.3750 ca         1 T3Y       0.017500
     34 C27         -2.6670    -0.1430    -2.1230 ca         1 T3Y       0.156100
     35 O15         -1.9360    -0.0940    -3.2690 oh         1 T3Y      -0.588100
     36 C15         -2.9770    -1.3930    -1.5460 ca         1 T3Y      -0.169550
     37 C16         -2.4560    -2.7080    -2.1360 c3         1 T3Y       0.046450
     38 C17         -1.0840    -3.0750    -1.5580 ca         1 T3Y      -0.169550
     39 C18         -1.0280    -3.8580    -0.3880 ca         1 T3Y       0.017500
     40 C26          0.1220    -2.6430    -2.1540 ca         1 T3Y       0.156100
     41 O14          0.0800    -1.9020    -3.2950 oh         1 T3Y      -0.588100
     42 C21          1.3680    -2.9530    -1.5670 ca         1 T3Y      -0.169550
     43 C20          1.4000    -3.7370    -0.3980 ca         1 T3Y       0.017500
     44 C19          0.2090    -4.2070     0.1860 ca         1 T3Y      -0.250000
     45 S4           0.2680    -5.2420     1.7170 s6         1 T3Y       1.266350
     46 O11          1.5520    -5.9440     1.5690 o          1 T3Y      -0.701950
     47 O10          0.2240    -4.2090     2.7620 o          1 T3Y      -0.701950
     48 O12         -0.9440    -6.0650     1.5830 o          1 T3Y      -0.701950
     49 H24          4.1610    -1.9450     0.0820 ha         1 T3Y       0.128625
     50 H22          2.6510    -2.3860    -3.2380 hc         1 T3Y       0.023825
     51 H22A         3.4900    -3.1430    -1.9290 hc         1 T3Y       0.023825
     52 H2           3.9400     2.3660     0.1080 ha         1 T3Y       0.128625
     53 HO13         1.4620    -0.7760    -3.3260 ho         1 T3Y       0.473750
     54 H4           3.1230     3.5160    -1.8800 hc         1 T3Y       0.023825
     55 H4A          2.3700     2.6890    -3.1990 hc         1 T3Y       0.023825
     56 H6           1.9130     4.1960     0.1160 ha         1 T3Y       0.128625
     57 H8          -2.3980     3.9720     0.1200 ha         1 T3Y       0.128625
     58 HO16         0.7630     1.4960    -3.2990 ho         1 T3Y       0.473750
     59 H10         -3.5380     3.1470    -1.8630 hc         1 T3Y       0.023825
     60 H10A        -2.7040     2.4100    -3.1860 hc         1 T3Y       0.023825
     61 H12         -4.2250     1.9160     0.1170 ha         1 T3Y       0.128625
     62 H14         -4.0080    -2.3960     0.0690 ha         1 T3Y       0.128625
     63 HO15        -1.5060     0.8010    -3.2980 ho         1 T3Y       0.473750
     64 H16         -3.1700    -3.5130    -1.9210 hc         1 T3Y       0.023825
     65 H16A        -2.4250    -2.6630    -3.2310 hc         1 T3Y       0.023825
     66 H18         -1.9530    -4.1940     0.0760 ha         1 T3Y       0.128625
     67 HO14        -0.8130    -1.4720    -3.3250 ho         1 T3Y       0.473750
     68 H20          2.3580    -3.9760     0.0610 ha         1 T3Y       0.128625
@<TRIPOS>BOND
     1     1     2 1   
     2     2     3 1   
     3     2     4 1   
     4     2     5 1   
     5     5     6 ar  
     6     5     9 ar  
     7     6     7 ar  
     8     6    49 1   
     9     7     8 1   
    10     7    11 ar  
    11     8    42 1   
    12     8    50 1   
    13     8    51 1   
    14     9    10 ar  
    15     9    52 1   
    16    10    11 ar  
    17    10    13 1   
    18    11    12 1   
    19    12    53 1   
    20    13    14 1   
    21    13    54 1   
    22    13    55 1   
    23    14    15 ar  
    24    14    22 ar  
    25    15    16 ar  
    26    15    56 1   
    27    16    17 1   
    28    16    21 ar  
    29    17    18 1   
    30    17    19 1   
    31    17    20 1   
    32    21    24 ar  
    33    21    57 1   
    34    22    23 1   
    35    22    24 ar  
    36    23    58 1   
    37    24    25 1   
    38    25    26 1   
    39    25    59 1   
    40    25    60 1   
    41    26    27 ar  
    42    26    34 ar  
    43    27    28 ar  
    44    27    61 1   
    45    28    29 1   
    46    28    33 ar  
    47    29    30 1   
    48    29    31 1   
    49    29    32 1   
    50    33    36 ar  
    51    33    62 1   
    52    34    35 1   
    53    34    36 ar  
    54    35    63 1   
    55    36    37 1   
    56    37    38 1   
    57    37    64 1   
    58    37    65 1   
    59    38    39 ar  
    60    38    40 ar  
    61    39    44 ar  
    62    39    66 1   
    63    40    41 1   
    64    40    42 ar  
    65    41    67 1   
    66    42    43 ar  
    67    43    44 ar  
    68    43    68 1   
    69    44    45 1   
    70    45    46 1   
    71    45    47 1   
    72    45    48 1   
@<TRIPOS>SUBSTRUCTURE
     1 T3Y         1 TEMP              0 ****  ****    0 ROOT
