@<TRIPOS>MOLECULE
T3Z
   31    32     1     0     0
SMALL
abcg2


@<TRIPOS>ATOM
      1 N1         -48.5120    17.3650   -26.3860 nb         1 T3Z      -0.688000
      2 C4         -47.6600    15.8430   -28.0150 ca         1 T3Z      -0.109000
      3 C5         -46.5020    16.6040   -28.1150 ca         1 T3Z      -0.081000
      4 C6         -46.3730    17.7400   -27.3400 ca         1 T3Z      -0.149000
      5 C7         -47.4110    18.0970   -26.4750 ca         1 T3Z       0.357300
      6 C8         -47.3120    19.3240   -25.6220 c3         1 T3Z      -0.146400
      7 C10        -53.7360    15.7620   -23.7840 cx         1 T3Z      -0.127900
      8 O          -50.0990    14.4660   -27.6490 o          1 T3Z      -0.615100
      9 N          -50.7650    15.9720   -26.0910 ns         1 T3Z      -0.485900
     10 C1         -52.0740    15.4050   -25.8070 c3         1 T3Z       0.147700
     11 C9         -52.3530    15.6200   -24.3350 cx         1 T3Z      -0.141700
     12 C11        -52.8170    16.9460   -23.8070 cx         1 T3Z      -0.127900
     13 C          -53.1240    15.9720   -26.7560 c3         1 T3Z      -0.110100
     14 C3         -48.6360    16.2700   -27.1320 ca         1 T3Z       0.295500
     15 H1         -47.7950    14.9480   -28.6040 ha         1 T3Z       0.150000
     16 H2         -45.7100    16.3090   -28.7910 ha         1 T3Z       0.123000
     17 H3         -45.4830    18.3520   -27.3950 ha         1 T3Z       0.124000
     18 H4         -48.1640    19.3970   -24.9500 hc         1 T3Z       0.052367
     19 H5         -46.3980    19.3130   -25.0260 hc         1 T3Z       0.052367
     20 H6         -47.2820    20.2250   -26.2370 hc         1 T3Z       0.052367
     21 H8         -53.9470    15.2930   -22.8310 hc         1 T3Z       0.071950
     22 H9         -50.5030    16.8360   -25.6350 hn         1 T3Z       0.341500
     23 H10        -52.0020    14.3290   -25.9810 h1         1 T3Z       0.077700
     24 H11        -51.6550    15.0870   -23.6970 hc         1 T3Z       0.083700
     25 H12        -52.3980    17.2940   -22.8720 hc         1 T3Z       0.071950
     26 H13        -53.0340    17.7360   -24.5150 hc         1 T3Z       0.071950
     27 H14        -54.0990    15.5160   -26.5850 hc         1 T3Z       0.043033
     28 H15        -53.2260    17.0530   -26.6480 hc         1 T3Z       0.043033
     29 H16        -52.8420    15.7640   -27.7880 hc         1 T3Z       0.043033
     30 C2         -49.9080    15.4790   -26.9860 c          1 T3Z       0.505600
     31 H7         -54.5740    15.7610   -24.4690 hc         1 T3Z       0.071950
@<TRIPOS>BOND
     1     1     5 ar  
     2     1    14 ar  
     3     2     3 ar  
     4     2    14 ar  
     5     2    15 1   
     6     3     4 ar  
     7     3    16 1   
     8     4     5 ar  
     9     4    17 1   
    10     5     6 1   
    11     6    18 1   
    12     6    19 1   
    13     6    20 1   
    14     7    11 1   
    15     7    12 1   
    16     7    21 1   
    17     7    31 1   
    18     8    30 2   
    19     9    10 1   
    20     9    22 1   
    21     9    30 1   
    22    10    11 1   
    23    10    13 1   
    24    10    23 1   
    25    11    12 1   
    26    11    24 1   
    27    12    25 1   
    28    12    26 1   
    29    13    27 1   
    30    13    28 1   
    31    13    29 1   
    32    14    30 1   
@<TRIPOS>SUBSTRUCTURE
     1 T3Z         1 TEMP              0 ****  ****    0 ROOT
