@<TRIPOS>MOLECULE
T3Z
   31    32     1     0     0
SMALL
No Charge or Current Charge


@<TRIPOS>ATOM
      1 N1         -48.4210    17.3910   -26.3390 nb         1 T3Z      -0.688000
      2 C4         -47.6380    15.9100   -28.0930 ca         1 T3Z      -0.109000
      3 C5         -46.4510    16.6490   -28.2190 ca         1 T3Z      -0.081000
      4 C6         -46.2710    17.7630   -27.3860 ca         1 T3Z      -0.149000
      5 C7         -47.2750    18.0980   -26.4610 ca         1 T3Z       0.357300
      6 C8         -47.1320    19.2950   -25.5420 c3         1 T3Z      -0.146400
      7 C10        -53.8460    15.7650   -23.7450 cx         1 T3Z      -0.127900
      8 O          -50.1630    14.5000   -27.6880 o          1 T3Z      -0.615100
      9 N          -50.7940    15.9560   -26.0550 ns         1 T3Z      -0.485900
     10 C1         -52.1030    15.3840   -25.7560 c3         1 T3Z       0.147700
     11 C9         -52.4350    15.6950   -24.2900 cx         1 T3Z      -0.141700
     12 C11        -53.0070    17.0220   -23.8390 cx         1 T3Z      -0.127900
     13 C          -53.1450    15.8470   -26.8020 c3         1 T3Z      -0.110100
     14 C3         -48.6100    16.3000   -27.1450 ca         1 T3Z       0.295500
     15 H1         -47.8080    15.0410   -28.7240 ha         1 T3Z       0.150000
     16 H2         -45.6910    16.3650   -28.9440 ha         1 T3Z       0.123000
     17 H3         -45.3660    18.3610   -27.4540 ha         1 T3Z       0.124000
     18 H4         -47.4990    19.0690   -24.5340 hc         1 T3Z       0.052367
     19 H5         -46.0840    19.6040   -25.4500 hc         1 T3Z       0.052367
     20 H6         -47.7010    20.1490   -25.9260 hc         1 T3Z       0.052367
     21 H8         -54.0250    15.3520   -22.7550 hc         1 T3Z       0.071950
     22 H9         -50.4910    16.7800   -25.5450 hn         1 T3Z       0.341500
     23 H10        -52.0190    14.2920   -25.8420 h1         1 T3Z       0.077700
     24 H11        -51.7000    15.2470   -23.6240 hc         1 T3Z       0.083700
     25 H12        -52.6270    17.4470   -22.9130 hc         1 T3Z       0.071950
     26 H13        -53.2810    17.7570   -24.5920 hc         1 T3Z       0.071950
     27 H14        -54.1150    15.3690   -26.6310 hc         1 T3Z       0.043033
     28 H15        -53.2800    16.9350   -26.7790 hc         1 T3Z       0.043033
     29 H16        -52.8200    15.5720   -27.8120 hc         1 T3Z       0.043033
     30 C2         -49.9090    15.4920   -27.0110 c          1 T3Z       0.505600
     31 H7         -54.6870    15.6710   -24.4270 hc         1 T3Z       0.071950
@<TRIPOS>BOND
     1     1     5 ar  
     2     1    14 ar  
     3     2     3 ar  
     4     2    14 ar  
     5     2    15 1   
     6     3     4 ar  
     7     3    16 1   
     8     4     5 ar  
     9     4    17 1   
    10     5     6 1   
    11     6    18 1   
    12     6    19 1   
    13     6    20 1   
    14     7    11 1   
    15     7    12 1   
    16     7    21 1   
    17     7    31 1   
    18     8    30 2   
    19     9    10 1   
    20     9    22 1   
    21     9    30 1   
    22    10    11 1   
    23    10    13 1   
    24    10    23 1   
    25    11    12 1   
    26    11    24 1   
    27    12    25 1   
    28    12    26 1   
    29    13    27 1   
    30    13    28 1   
    31    13    29 1   
    32    14    30 1   
@<TRIPOS>SUBSTRUCTURE
     1 T3Z         1 TEMP              0 ****  ****    0 ROOT
