@<TRIPOS>MOLECULE
T40
   48    51     1     0     0
SMALL
No Charge or Current Charge


@<TRIPOS>ATOM
      1 O            4.4200    -2.4700    -1.7690 o          1 T40      -0.559000
      2 C6           3.8300    -1.5560    -1.2110 c          1 T40       0.572600
      3 C5           4.5310    -0.5060    -0.3820 ca         1 T40      -0.166600
      4 C            5.9310    -0.5460    -0.2190 ca         1 T40      -0.048000
      5 N            2.4670    -1.4350    -1.3110 ns         1 T40      -0.382100
      6 C7           1.7150    -0.4410    -0.7260 cc         1 T40       0.120400
      7 C8           2.3230     0.5260     0.0400 cd         1 T40      -0.252200
      8 C4           3.7820     0.5230     0.2350 ca         1 T40       0.019200
      9 C3           4.4380     1.5080     1.0140 ca         1 T40      -0.088300
     10 C20          3.6670     2.6350     1.6950 c3         1 T40      -0.044800
     11 C2           5.8380     1.4510     1.1650 ca         1 T40      -0.078000
     12 C1           6.5800     0.4300     0.5520 ca         1 T40      -0.132000
     13 C9           0.2600    -0.4200    -0.8950 ca         1 T40      -0.077800
     14 C14         -0.4800    -1.6180    -0.8160 ca         1 T40      -0.094000
     15 C13         -1.8760    -1.6070    -0.9820 ca         1 T40      -0.100500
     16 C12         -2.5550    -0.4000    -1.2330 ca         1 T40      -0.070300
     17 C11         -1.8180     0.7970    -1.3180 ca         1 T40      -0.100500
     18 C10         -0.4230     0.7870    -1.1510 ca         1 T40      -0.094000
     19 C15         -4.0710    -0.3830    -1.4130 c3         1 T40       0.216100
     20 N1          -4.7900     0.3000    -0.3110 n3         1 T40      -0.732600
     21 C19         -6.2550     0.4410    -0.5830 c6         1 T40       0.168300
     22 C18         -7.0060     1.1940     0.5650 c6         1 T40       0.156300
     23 N2          -6.7800     0.5730     1.9020 n7         1 T40      -0.862400
     24 C17         -5.3230     0.4050     2.1780 c6         1 T40       0.156300
     25 C16         -4.5740    -0.3440     1.0260 c6         1 T40       0.168300
     26 H            2.0080    -2.1380    -1.8750 hn         1 T40       0.327500
     27 HA           6.5190    -1.3330    -0.6890 ha         1 T40       0.136000
     28 H1           7.6600     0.3950     0.6750 ha         1 T40       0.118000
     29 H8           1.7070     1.2810     0.5150 ha         1 T40       0.198000
     30 H201         2.9400     2.2370     2.4130 hc         1 T40       0.042367
     31 H202         4.3320     3.3110     2.2460 hc         1 T40       0.042367
     32 H203         3.1230     3.2410     0.9610 hc         1 T40       0.042367
     33 H2           6.3560     2.2010     1.7590 ha         1 T40       0.111000
     34 H14          0.0230    -2.5610    -0.6120 ha         1 T40       0.119000
     35 H10          0.1270     1.7220    -1.2320 ha         1 T40       0.119000
     36 H13         -2.4310    -2.5400    -0.9100 ha         1 T40       0.124500
     37 H11         -2.3320     1.7360    -1.5120 ha         1 T40       0.124500
     38 H151        -4.2900     0.1220    -2.3640 h1         1 T40       0.041200
     39 H152        -4.4340    -1.4150    -1.5140 h1         1 T40       0.041200
     40 H191        -6.4160     0.9880    -1.5240 h1         1 T40       0.039450
     41 H192        -6.7120    -0.5520    -0.7070 h1         1 T40       0.039450
     42 H161        -4.9230    -1.3870     1.0020 h1         1 T40       0.039450
     43 H162        -3.5030    -0.3710     1.2730 h1         1 T40       0.039450
     44 H181        -6.6570     2.2370     0.5900 h1         1 T40       0.036700
     45 H182        -8.0840     1.2150     0.3460 h1         1 T40       0.036700
     46 HB          -7.1950     1.1710     2.6280 hn         1 T40       0.412000
     47 H171        -4.8660     1.3980     2.3070 h1         1 T40       0.036700
     48 H172        -5.1870    -0.1430     3.1210 h1         1 T40       0.036700
@<TRIPOS>BOND
     1     1     2 2   
     2     2     3 1   
     3     2     5 1   
     4     3     4 ar  
     5     3     8 ar  
     6     4    12 ar  
     7     4    27 1   
     8     5     6 1   
     9     5    26 1   
    10     6     7 2   
    11     6    13 1   
    12     7     8 1   
    13     7    29 1   
    14     8     9 ar  
    15     9    10 1   
    16     9    11 ar  
    17    10    30 1   
    18    10    31 1   
    19    10    32 1   
    20    11    12 ar  
    21    11    33 1   
    22    12    28 1   
    23    13    14 ar  
    24    13    18 ar  
    25    14    15 ar  
    26    14    34 1   
    27    15    16 ar  
    28    15    36 1   
    29    16    17 ar  
    30    16    19 1   
    31    17    18 ar  
    32    17    37 1   
    33    18    35 1   
    34    19    20 1   
    35    19    38 1   
    36    19    39 1   
    37    20    21 1   
    38    20    25 1   
    39    21    22 1   
    40    21    40 1   
    41    21    41 1   
    42    22    23 1   
    43    22    44 1   
    44    22    45 1   
    45    23    24 1   
    46    23    46 1   
    47    24    25 1   
    48    24    47 1   
    49    24    48 1   
    50    25    42 1   
    51    25    43 1   
@<TRIPOS>SUBSTRUCTURE
     1 T40         1 TEMP              0 ****  ****    0 ROOT
