@<TRIPOS>MOLECULE
T40
   48    51     1     0     0
SMALL
abcg2


@<TRIPOS>ATOM
      1 O            4.3910    -2.0880    -2.1790 o          1 T40      -0.559000
      2 C6           3.8120    -1.2930    -1.4500 c          1 T40       0.572600
      3 C5           4.4850    -0.3530    -0.5540 ca         1 T40      -0.166600
      4 C            5.8830    -0.3510    -0.5020 ca         1 T40      -0.048000
      5 N            2.4450    -1.2250    -1.4380 ns         1 T40      -0.382100
      6 C7           1.6910    -0.3720    -0.6730 cc         1 T40       0.120400
      7 C8           2.3070     0.5010     0.1580 cd         1 T40      -0.252200
      8 C4           3.7360     0.5400     0.2360 ca         1 T40       0.019200
      9 C3           4.4120     1.4430     1.0910 ca         1 T40      -0.088300
     10 C20          3.6490     2.4100     1.9460 c3         1 T40      -0.044800
     11 C2           5.7930     1.4180     1.1180 ca         1 T40      -0.078000
     12 C1           6.5320     0.5300     0.3310 ca         1 T40      -0.132000
     13 C9           0.2300    -0.4830    -0.7940 ca         1 T40      -0.077800
     14 C14         -0.3900    -1.7200    -0.9690 ca         1 T40      -0.094000
     15 C13         -1.7710    -1.8080    -1.0610 ca         1 T40      -0.100500
     16 C12         -2.5690    -0.6720    -0.9910 ca         1 T40      -0.070300
     17 C11         -1.9470     0.5630    -0.8170 ca         1 T40      -0.100500
     18 C10         -0.5710     0.6590    -0.7210 ca         1 T40      -0.094000
     19 C15         -4.0650    -0.7630    -1.1420 c3         1 T40       0.216100
     20 N1          -4.7660     0.1390    -0.2580 n3         1 T40      -0.732600
     21 C19         -6.1500     0.3320    -0.6450 c6         1 T40       0.168300
     22 C18         -6.8020     1.3750     0.2440 c6         1 T40       0.156300
     23 N2          -6.7110     0.9550     1.6300 n7         1 T40      -0.862400
     24 C17         -5.3260     0.7820     2.0240 c6         1 T40       0.156300
     25 C16         -4.6690    -0.2570     1.1340 c6         1 T40       0.168300
     26 H            1.9720    -1.8320    -2.0950 hn         1 T40       0.327500
     27 HA           6.4440    -1.0420    -1.1160 ha         1 T40       0.136000
     28 H1           7.6130     0.5390     0.3800 ha         1 T40       0.118000
     29 H8           1.7040     1.1410     0.7830 ha         1 T40       0.198000
     30 H201         2.9840     1.8980     2.6440 hc         1 T40       0.042367
     31 H202         4.3270     3.0280     2.5330 hc         1 T40       0.042367
     32 H203         3.0290     3.0800     1.3470 hc         1 T40       0.042367
     33 H2           6.3190     2.1070     1.7680 ha         1 T40       0.111000
     34 H14          0.1960    -2.6310    -1.0010 ha         1 T40       0.119000
     35 H10         -0.1120     1.6330    -0.6090 ha         1 T40       0.119000
     36 H13         -2.2320    -2.7820    -1.1800 ha         1 T40       0.124500
     37 H11         -2.5540     1.4570    -0.7550 ha         1 T40       0.124500
     38 H151        -4.3230    -0.4930    -2.1710 h1         1 T40       0.041200
     39 H152        -4.3830    -1.8120    -1.0160 h1         1 T40       0.041200
     40 H191        -6.1850     0.6700    -1.6840 h1         1 T40       0.039450
     41 H192        -6.7310    -0.6050    -0.5890 h1         1 T40       0.039450
     42 H161        -5.1410    -1.2390     1.3090 h1         1 T40       0.039450
     43 H162        -3.6170    -0.3520     1.4130 h1         1 T40       0.039450
     44 H181        -6.3150     2.3460     0.0590 h1         1 T40       0.036700
     45 H182        -7.8520     1.4800    -0.0340 h1         1 T40       0.036700
     46 HB          -7.1510     1.6450     2.2240 hn         1 T40       0.412000
     47 H171        -4.7420     1.7140     1.9610 h1         1 T40       0.036700
     48 H172        -5.2850     0.4440     3.0620 h1         1 T40       0.036700
@<TRIPOS>BOND
     1     1     2 2   
     2     2     3 1   
     3     2     5 1   
     4     3     4 ar  
     5     3     8 ar  
     6     4    12 ar  
     7     4    27 1   
     8     5     6 1   
     9     5    26 1   
    10     6     7 2   
    11     6    13 1   
    12     7     8 1   
    13     7    29 1   
    14     8     9 ar  
    15     9    10 1   
    16     9    11 ar  
    17    10    30 1   
    18    10    31 1   
    19    10    32 1   
    20    11    12 ar  
    21    11    33 1   
    22    12    28 1   
    23    13    14 ar  
    24    13    18 ar  
    25    14    15 ar  
    26    14    34 1   
    27    15    16 ar  
    28    15    36 1   
    29    16    17 ar  
    30    16    19 1   
    31    17    18 ar  
    32    17    37 1   
    33    18    35 1   
    34    19    20 1   
    35    19    38 1   
    36    19    39 1   
    37    20    21 1   
    38    20    25 1   
    39    21    22 1   
    40    21    40 1   
    41    21    41 1   
    42    22    23 1   
    43    22    44 1   
    44    22    45 1   
    45    23    24 1   
    46    23    46 1   
    47    24    25 1   
    48    24    47 1   
    49    24    48 1   
    50    25    42 1   
    51    25    43 1   
@<TRIPOS>SUBSTRUCTURE
     1 T40         1 TEMP              0 ****  ****    0 ROOT
