@<TRIPOS>MOLECULE
T43
   80    84     1     0     0
SMALL
No Charge or Current Charge


@<TRIPOS>ATOM
      1 NAI          8.5850    -3.7900    22.2650 nc         1 T43      -0.466100
      2 CAD          8.8150    -4.7920    23.2090 ca         1 T43       0.035400
      3 CAE          8.7580    -4.6020    24.6080 ca         1 T43       0.234000
      4 FAJ          8.4630    -3.3870    25.1250 f          1 T43      -0.153000
      5 CAF          9.0190    -5.6800    25.4750 ca         1 T43      -0.160000
      6 CAA          9.3370    -6.9500    24.9500 ca         1 T43      -0.062000
      7 CAB          9.3950    -7.1390    23.5570 ca         1 T43      -0.094000
      8 CAC          9.1320    -6.0460    22.7150 ca         1 T43      -0.167000
      9 SAG          9.1510    -6.0780    20.9620 ss         1 T43       0.130800
     10 CAH          8.7620    -4.3390    21.0450 cd         1 T43       0.282200
     11 C            8.7070    -3.5310    19.7850 c          1 T43       0.502800
     12 O            8.9000    -4.0460    18.6850 o          1 T43      -0.483100
     13 CA           8.4170    -2.0030    19.9040 c3         1 T43       0.008700
     14 CB           8.1420    -1.3180    18.5320 c3         1 T43      -0.064400
     15 CG           7.6110     0.1410    18.6110 c5         1 T43      -0.157700
     16 CD1          6.1580     0.2890    19.1440 c5         1 T43      -0.095400
     17 CAQ          5.7930     1.7100    18.6340 c5         1 T43       0.101000
     18 NAR          6.4700     1.7080    17.3390 ns         1 T43      -0.516900
     19 CD2          7.5350     0.8530    17.2540 c          1 T43       0.560000
     20 OAT          8.1010     0.5940    16.2040 o          1 T43      -0.557000
     21 N            9.5550    -1.3560    20.5950 ns         1 T43      -0.375900
     22 CAV          9.4890    -0.4470    21.6290 cs         1 T43       0.392400
     23 SAX          8.0530     0.0430    22.3490 s          1 T43      -0.571400
     24 CAW         10.9260    -0.1220    22.1280 c5         1 T43       0.090700
     25 CBB         11.4600    -1.2410    23.0420 cx         1 T43      -0.123700
     26 CBC         12.9400    -1.2110    23.3890 cx         1 T43      -0.082000
     27 CBD         13.9500    -0.3280    22.6350 c3         1 T43      -0.065100
     28 CBE         13.6060    -2.5330    23.7690 c3         1 T43      -0.065100
     29 CBA         11.9050    -0.6350    24.3440 cx         1 T43      -0.118700
     30 CAZ         11.6610     0.8780    24.2910 c5         1 T43       0.138000
     31 NAY         10.9910     1.1010    22.9820 n          1 T43      -0.393800
     32 CBF         10.9190     2.3820    22.3880 c          1 T43       0.592100
     33 OBH         10.8390     2.4800    21.1660 o          1 T43      -0.626100
     34 CBG         10.9030     3.6660    23.2920 c3         1 T43       0.047700
     35 CBP          9.4750     4.0590    23.8450 c3         1 T43      -0.050000
     36 CBR          9.5320     5.4230    24.5920 c3         1 T43      -0.090767
     37 CBS          8.9580     3.0030    24.8570 c3         1 T43      -0.090767
     38 CBQ          8.4460     4.1810    22.6850 c3         1 T43      -0.090767
     39 NBI         11.5130     4.7750    22.5150 ns         1 T43      -0.476900
     40 CBJ         12.4570     5.6680    22.9920 c          1 T43       0.553100
     41 OBO         12.8830     5.5990    24.1390 o          1 T43      -0.553100
     42 CBK         12.9240     6.7410    21.9680 c3         1 T43       0.209000
     43 FBM         11.8840     7.4910    21.5330 f          1 T43      -0.100667
     44 FBN         13.4930     6.1690    20.8810 f          1 T43      -0.100667
     45 FBL         13.8370     7.5900    22.4990 f          1 T43      -0.100667
     46 H1           8.9750    -5.5290    26.5500 ha         1 T43       0.140000
     47 H2           9.5380    -7.7840    25.6210 ha         1 T43       0.125000
     48 H3           9.6390    -8.1150    23.1420 ha         1 T43       0.133000
     49 H4           7.5160    -1.9220    20.5260 h1         1 T43       0.132700
     50 H5           7.4200    -1.9240    17.9690 hc         1 T43       0.075200
     51 H6           9.0700    -1.3390    17.9460 hc         1 T43       0.075200
     52 H7           8.2720     0.7470    19.2420 hc         1 T43       0.090700
     53 H8           5.4910    -0.4610    18.7020 hc         1 T43       0.068200
     54 H9           6.0740     0.2010    20.2320 hc         1 T43       0.068200
     55 H10          6.1960     2.4900    19.2940 h1         1 T43       0.046200
     56 H11          4.7070     1.8510    18.5490 h1         1 T43       0.046200
     57 H12          6.1820     2.2180    16.5120 hn         1 T43       0.327500
     58 H13         10.4890    -1.5990    20.2770 hn         1 T43       0.323500
     59 H14         11.5570     0.0030    21.2370 h1         1 T43       0.076700
     60 H15         10.9500    -2.2030    23.0690 hc         1 T43       0.117700
     61 H16         14.8310    -0.1310    23.2570 hc         1 T43       0.042200
     62 H17         14.2960    -0.8290    21.7230 hc         1 T43       0.042200
     63 H18         13.5510     0.6450    22.3320 hc         1 T43       0.042200
     64 H19         12.9160    -3.1930    24.3080 hc         1 T43       0.042200
     65 H20         13.9490    -3.0720    22.8770 hc         1 T43       0.042200
     66 H21         14.4750    -2.3650    24.4170 hc         1 T43       0.042200
     67 H22         11.7040    -1.1740    25.2680 hc         1 T43       0.107700
     68 H23         12.5950     1.4500    24.3700 h1         1 T43       0.065700
     69 H24         11.0160     1.1960    25.1180 h1         1 T43       0.065700
     70 H25         11.5540     3.4670    24.1510 h1         1 T43       0.089700
     71 H26         10.2850     5.4020    25.3900 hc         1 T43       0.043367
     72 H27          9.7760     6.2480    23.9130 hc         1 T43       0.043367
     73 H28          8.5650     5.6590    25.0530 hc         1 T43       0.043367
     74 H29          9.6400     2.9120    25.7120 hc         1 T43       0.043367
     75 H30          7.9740     3.2860    25.2490 hc         1 T43       0.043367
     76 H31          8.8500     2.0170    24.3940 hc         1 T43       0.043367
     77 H32          7.4680     4.5010    23.0640 hc         1 T43       0.043367
     78 H33          8.7710     4.9180    21.9410 hc         1 T43       0.043367
     79 H34          8.3010     3.2220    22.1740 hc         1 T43       0.043367
     80 H35         11.2450     4.8700    21.5400 hn         1 T43       0.354500
@<TRIPOS>BOND
     1     1     2 1   
     2     1    10 2   
     3     2     3 ar  
     4     2     8 ar  
     5     3     4 1   
     6     3     5 ar  
     7     5     6 ar  
     8     5    46 1   
     9     6     7 ar  
    10     6    47 1   
    11     7     8 ar  
    12     7    48 1   
    13     8     9 1   
    14     9    10 1   
    15    10    11 1   
    16    11    12 2   
    17    11    13 1   
    18    13    14 1   
    19    13    21 1   
    20    13    49 1   
    21    14    15 1   
    22    14    50 1   
    23    14    51 1   
    24    15    16 1   
    25    15    19 1   
    26    15    52 1   
    27    16    17 1   
    28    16    53 1   
    29    16    54 1   
    30    17    18 1   
    31    17    55 1   
    32    17    56 1   
    33    18    19 1   
    34    18    57 1   
    35    19    20 2   
    36    21    22 1   
    37    21    58 1   
    38    22    23 2   
    39    22    24 1   
    40    24    25 1   
    41    24    31 1   
    42    24    59 1   
    43    25    26 1   
    44    25    29 1   
    45    25    60 1   
    46    26    27 1   
    47    26    28 1   
    48    26    29 1   
    49    27    61 1   
    50    27    62 1   
    51    27    63 1   
    52    28    64 1   
    53    28    65 1   
    54    28    66 1   
    55    29    30 1   
    56    29    67 1   
    57    30    31 1   
    58    30    68 1   
    59    30    69 1   
    60    31    32 1   
    61    32    33 2   
    62    32    34 1   
    63    34    35 1   
    64    34    39 1   
    65    34    70 1   
    66    35    36 1   
    67    35    37 1   
    68    35    38 1   
    69    36    71 1   
    70    36    72 1   
    71    36    73 1   
    72    37    74 1   
    73    37    75 1   
    74    37    76 1   
    75    38    77 1   
    76    38    78 1   
    77    38    79 1   
    78    39    40 1   
    79    39    80 1   
    80    40    41 2   
    81    40    42 1   
    82    42    43 1   
    83    42    44 1   
    84    42    45 1   
@<TRIPOS>SUBSTRUCTURE
     1 T43         1 TEMP              0 ****  ****    0 ROOT
