@<TRIPOS>MOLECULE
T43
   80    84     1     0     0
SMALL
abcg2


@<TRIPOS>ATOM
      1 NAI          8.8360    -4.0150    22.1190 nc         1 T43      -0.466100
      2 CAD          9.3440    -5.1520    22.6810 ca         1 T43       0.035400
      3 CAE          9.7490    -5.3110    24.0120 ca         1 T43       0.234000
      4 FAJ          9.6330    -4.2660    24.8540 f          1 T43      -0.153000
      5 CAF         10.2580    -6.5050    24.4590 ca         1 T43      -0.160000
      6 CAA         10.3720    -7.5850    23.5660 ca         1 T43      -0.062000
      7 CAB          9.9880    -7.4800    22.2410 ca         1 T43      -0.094000
      8 CAC          9.4740    -6.2580    21.8060 ca         1 T43      -0.167000
      9 SAG          8.9150    -5.8000    20.2310 ss         1 T43       0.130800
     10 CAH          8.5720    -4.1980    20.8630 cd         1 T43       0.282200
     11 C            8.0030    -3.1770    19.9510 c          1 T43       0.502800
     12 O            7.6350    -3.5020    18.8400 o          1 T43      -0.483100
     13 CA           7.8890    -1.7380    20.4600 c3         1 T43       0.008700
     14 CB           7.4260    -0.7840    19.3580 c3         1 T43      -0.064400
     15 CG           7.2190     0.6410    19.8510 c5         1 T43      -0.157700
     16 CD1          5.9690     0.8980    20.7040 c5         1 T43      -0.095400
     17 CAQ          5.6190     2.3660    20.4180 c5         1 T43       0.101000
     18 NAR          6.1640     2.5620    19.0790 ns         1 T43      -0.516900
     19 CD2          7.0820     1.6480    18.7090 c          1 T43       0.560000
     20 OAT          7.7150     1.6470    17.6560 o          1 T43      -0.557000
     21 N            9.1550    -1.3040    21.0210 ns         1 T43      -0.375900
     22 CAV          9.3380    -0.8010    22.2350 cs         1 T43       0.392400
     23 SAX          8.1540    -0.6210    23.3910 s          1 T43      -0.571400
     24 CAW         10.7870    -0.4110    22.5200 c5         1 T43       0.090700
     25 CBB         11.3590    -1.2530    23.6400 cx         1 T43      -0.123700
     26 CBC         12.7790    -1.0130    24.0900 cx         1 T43      -0.082000
     27 CBD         13.7680    -0.2260    23.2570 c3         1 T43      -0.065100
     28 CBE         13.4130    -2.1790    24.8200 c3         1 T43      -0.065100
     29 CBA         11.6330    -0.3450    24.8130 cx         1 T43      -0.118700
     30 CAZ         11.2350     1.0600    24.4300 c5         1 T43       0.138000
     31 NAY         10.8880     0.9690    22.9990 n          1 T43      -0.393800
     32 CBF         10.7220     1.9760    22.1230 c          1 T43       0.592100
     33 OBH         10.5120     1.7670    20.9250 o          1 T43      -0.626100
     34 CBG         10.8170     3.4130    22.6400 c3         1 T43       0.047700
     35 CBP          9.4400     4.1510    22.6590 c3         1 T43      -0.050000
     36 CBR          9.6450     5.5080    23.3450 c3         1 T43      -0.090767
     37 CBS          8.4500     3.3150    23.4770 c3         1 T43      -0.090767
     38 CBQ          8.8810     4.3780    21.2500 c3         1 T43      -0.090767
     39 NBI         11.8010     4.0900    21.8060 ns         1 T43      -0.476900
     40 CBJ         12.8460     4.7470    22.3070 c          1 T43       0.553100
     41 OBO         13.1230     4.9100    23.4850 o          1 T43      -0.553100
     42 CBK         13.7900     5.3810    21.2520 c3         1 T43       0.209000
     43 FBM         13.4440     5.1030    19.9820 f          1 T43      -0.100667
     44 FBN         15.0470     4.9480    21.4360 f          1 T43      -0.100667
     45 FBL         13.7930     6.7180    21.3890 f          1 T43      -0.100667
     46 H1          10.5650    -6.6020    25.4910 ha         1 T43       0.140000
     47 H2          10.7740    -8.5210    23.9310 ha         1 T43       0.125000
     48 H3          10.0830    -8.3190    21.5660 ha         1 T43       0.133000
     49 H4           7.1760    -1.7490    21.2910 h1         1 T43       0.132700
     50 H5           6.4990    -1.1690    18.9300 hc         1 T43       0.075200
     51 H6           8.1710    -0.7840    18.5590 hc         1 T43       0.075200
     52 H7           8.1110     0.9670    20.3980 hc         1 T43       0.090700
     53 H8           5.1570     0.2520    20.3630 hc         1 T43       0.068200
     54 H9           6.1370     0.7130    21.7610 hc         1 T43       0.068200
     55 H10          6.1000     3.0410    21.1310 h1         1 T43       0.046200
     56 H11          4.5470     2.5550    20.4320 h1         1 T43       0.046200
     57 H12          6.0090     3.3990    18.5380 hn         1 T43       0.327500
     58 H13          9.9480    -1.3050    20.3920 hn         1 T43       0.323500
     59 H14         11.3620    -0.4980    21.5960 h1         1 T43       0.076700
     60 H15         10.9320    -2.2360    23.7770 hc         1 T43       0.117700
     61 H16         14.5640     0.1640    23.8950 hc         1 T43       0.042200
     62 H17         14.2290    -0.8780    22.5110 hc         1 T43       0.042200
     63 H18         13.3230     0.6170    22.7300 hc         1 T43       0.042200
     64 H19         12.6750    -2.7310    25.4050 hc         1 T43       0.042200
     65 H20         13.8710    -2.8730    24.1100 hc         1 T43       0.042200
     66 H21         14.1940    -1.8290    25.5000 hc         1 T43       0.042200
     67 H22         11.4040    -0.6600    25.8220 hc         1 T43       0.107700
     68 H23         12.0430     1.7790    24.5720 h1         1 T43       0.065700
     69 H24         10.3730     1.3810    25.0150 h1         1 T43       0.065700
     70 H25         11.2090     3.4320    23.6510 h1         1 T43       0.089700
     71 H26         10.0160     5.3820    24.3640 hc         1 T43       0.043367
     72 H27         10.3530     6.1310    22.7950 hc         1 T43       0.043367
     73 H28          8.6950     6.0430    23.3890 hc         1 T43       0.043367
     74 H29          8.8190     3.1460    24.4910 hc         1 T43       0.043367
     75 H30          7.4980     3.8430    23.5490 hc         1 T43       0.043367
     76 H31          8.2610     2.3430    23.0200 hc         1 T43       0.043367
     77 H32          7.9290     4.9070    21.3240 hc         1 T43       0.043367
     78 H33          9.5530     4.9920    20.6470 hc         1 T43       0.043367
     79 H34          8.7120     3.4390    20.7280 hc         1 T43       0.043367
     80 H35         11.7080     3.9920    20.8050 hn         1 T43       0.354500
@<TRIPOS>BOND
     1     1     2 1   
     2     1    10 2   
     3     2     3 ar  
     4     2     8 ar  
     5     3     4 1   
     6     3     5 ar  
     7     5     6 ar  
     8     5    46 1   
     9     6     7 ar  
    10     6    47 1   
    11     7     8 ar  
    12     7    48 1   
    13     8     9 1   
    14     9    10 1   
    15    10    11 1   
    16    11    12 2   
    17    11    13 1   
    18    13    14 1   
    19    13    21 1   
    20    13    49 1   
    21    14    15 1   
    22    14    50 1   
    23    14    51 1   
    24    15    16 1   
    25    15    19 1   
    26    15    52 1   
    27    16    17 1   
    28    16    53 1   
    29    16    54 1   
    30    17    18 1   
    31    17    55 1   
    32    17    56 1   
    33    18    19 1   
    34    18    57 1   
    35    19    20 2   
    36    21    22 1   
    37    21    58 1   
    38    22    23 2   
    39    22    24 1   
    40    24    25 1   
    41    24    31 1   
    42    24    59 1   
    43    25    26 1   
    44    25    29 1   
    45    25    60 1   
    46    26    27 1   
    47    26    28 1   
    48    26    29 1   
    49    27    61 1   
    50    27    62 1   
    51    27    63 1   
    52    28    64 1   
    53    28    65 1   
    54    28    66 1   
    55    29    30 1   
    56    29    67 1   
    57    30    31 1   
    58    30    68 1   
    59    30    69 1   
    60    31    32 1   
    61    32    33 2   
    62    32    34 1   
    63    34    35 1   
    64    34    39 1   
    65    34    70 1   
    66    35    36 1   
    67    35    37 1   
    68    35    38 1   
    69    36    71 1   
    70    36    72 1   
    71    36    73 1   
    72    37    74 1   
    73    37    75 1   
    74    37    76 1   
    75    38    77 1   
    76    38    78 1   
    77    38    79 1   
    78    39    40 1   
    79    39    80 1   
    80    40    41 2   
    81    40    42 1   
    82    42    43 1   
    83    42    44 1   
    84    42    45 1   
@<TRIPOS>SUBSTRUCTURE
     1 T43         1 TEMP              0 ****  ****    0 ROOT
