@<TRIPOS>MOLECULE
T44
   34    35     1     0     0
SMALL
No Charge or Current Charge


@<TRIPOS>ATOM
      1 C1           0.0580    -0.3210     3.8930 ca         1 T44      -0.040300
      2 C2           1.2470    -0.3650     3.1350 ca         1 T44      -0.069500
      3 C3           1.2860     0.1770     1.8390 ca         1 T44       0.187000
      4 C4           0.1310     0.7650     1.2840 ca         1 T44       0.101100
      5 C5          -1.0580     0.8110     2.0390 ca         1 T44       0.187000
      6 C6          -1.0930     0.2680     3.3340 ca         1 T44      -0.069500
      7 C7           0.0120    -0.9170     5.2980 c3         1 T44      -0.077100
      8 C8          -0.1860     0.1370     6.4200 c3         1 T44       0.028500
      9 C9          -0.4030    -0.5710     7.8230 c          1 T44       0.724000
     10 C10          0.1000     0.5270    -1.1250 ca         1 T44       0.106100
     11 C11          0.4160     1.1260    -2.3550 ca         1 T44      -0.070000
     12 C12          0.3730     0.3740    -3.5390 ca         1 T44       0.153000
     13 C13          0.0100    -0.9900    -3.5080 ca         1 T44       0.166100
     14 C14         -0.3130    -1.5880    -2.2690 ca         1 T44       0.153000
     15 C15         -0.2700    -0.8340    -1.0840 ca         1 T44      -0.070000
     16 N8           0.9020     1.1790     6.3510 n8         1 T44      -0.989200
     17 O4           0.1580     1.3010     0.0140 os         1 T44      -0.232200
     18 O2          -0.0310    -1.7250    -4.6700 oh         1 T44      -0.518100
     19 O9           0.5400    -1.1680     8.3300 o          1 T44      -0.721500
     20 O10         -1.4870    -0.4420     8.3770 o          1 T44      -0.721500
     21 I3           3.1520     0.0870     0.7200 i          1 T44      -0.306500
     22 I1           0.8760     1.3340    -5.4250 i          1 T44      -0.304000
     23 I5          -2.8640     1.6980     1.2120 i          1 T44      -0.306500
     24 I2          -0.8860    -3.6850    -2.1510 i          1 T44      -0.304000
     25 H2           2.1440    -0.8180     3.5490 ha         1 T44       0.141000
     26 H6          -2.0200     0.3030     3.9010 ha         1 T44       0.141000
     27 H71          0.9230    -1.4930     5.5030 hc         1 T44       0.064200
     28 H72         -0.8120    -1.6400     5.3530 hc         1 T44       0.064200
     29 H8          -1.1280     0.6600     6.2010 h1         1 T44       0.046700
     30 H1           0.6980     2.1740    -2.3890 ha         1 T44       0.148500
     31 H3          -0.5290    -1.3180    -0.1470 ha         1 T44       0.148500
     32 HN81         1.7920     0.7460     6.6300 hn         1 T44       0.381000
     33 HN82         1.0520     1.4450     5.3710 hn         1 T44       0.381000
     34 HO4          0.2230    -1.1370    -5.4170 ho         1 T44       0.478000
@<TRIPOS>BOND
     1     1     2 ar  
     2     1     6 ar  
     3     1     7 1   
     4     2     3 ar  
     5     2    25 1   
     6     3     4 ar  
     7     3    21 1   
     8     4     5 ar  
     9     4    17 1   
    10     5     6 ar  
    11     5    23 1   
    12     6    26 1   
    13     7     8 1   
    14     7    27 1   
    15     7    28 1   
    16     8     9 1   
    17     8    16 1   
    18     8    29 1   
    19     9    19 1   
    20     9    20 1   
    21    10    11 ar  
    22    10    15 ar  
    23    10    17 1   
    24    11    12 ar  
    25    11    30 1   
    26    12    13 ar  
    27    12    22 1   
    28    13    14 ar  
    29    13    18 1   
    30    14    15 ar  
    31    14    24 1   
    32    15    31 1   
    33    16    32 1   
    34    16    33 1   
    35    18    34 1   
@<TRIPOS>SUBSTRUCTURE
     1 T44         1 TEMP              0 ****  ****    0 ROOT
