@<TRIPOS>MOLECULE
T44
   34    35     1     0     0
SMALL
bcc


@<TRIPOS>ATOM
      1 C1          -0.0110    -0.3850     3.8520 ca         1 T44      -0.040300
      2 C2           1.2360    -0.3750     3.2340 ca         1 T44      -0.087500
      3 C3           1.3860     0.1550     1.9620 ca         1 T44       0.049900
      4 C4           0.3030     0.6980     1.2830 ca         1 T44       0.101100
      5 C5          -0.9430     0.6920     1.9050 ca         1 T44       0.049900
      6 C6          -1.1000     0.1600     3.1730 ca         1 T44      -0.087500
      7 C7          -0.1790    -0.9080     5.2460 c3         1 T44      -0.077100
      8 C8          -0.1660     0.2210     6.3040 c3         1 T44       0.028500
      9 C9          -0.4040    -0.4230     7.6910 c          1 T44       0.934600
     10 C10          0.2680     0.4940    -1.0590 ca         1 T44       0.106100
     11 C11          0.3880     1.1470    -2.2750 ca         1 T44      -0.088000
     12 C12          0.2030     0.4390    -3.4500 ca         1 T44       0.015900
     13 C13         -0.1070    -0.9250    -3.4520 ca         1 T44       0.166100
     14 C14         -0.2170    -1.5430    -2.2070 ca         1 T44       0.015900
     15 C15         -0.0350    -0.8570    -1.0170 ca         1 T44      -0.088000
     16 N8           1.0240     1.0440     6.3010 n8         1 T44      -0.878800
     17 O4           0.4650     1.2610     0.0570 os         1 T44      -0.232200
     18 O2          -0.3010    -1.6710    -4.5430 oh         1 T44      -0.479100
     19 O9           0.5430    -0.4170     8.4990 o          1 T44      -0.826800
     20 O10         -1.5320    -0.9280     7.8640 o          1 T44      -0.826800
     21 I3           3.2700     0.1480     1.0430 i          1 T44      -0.169400
     22 I1           0.3980     1.4750    -5.2700 i          1 T44      -0.166900
     23 I5          -2.5920     1.5160     0.9070 i          1 T44      -0.169400
     24 I2          -0.6830    -3.5870    -2.1340 i          1 T44      -0.166900
     25 H2           2.0870    -0.7990     3.7510 ha         1 T44       0.159000
     26 H6          -2.0730     0.1590     3.6460 ha         1 T44       0.159000
     27 H71          0.6220    -1.6200     5.4660 hc         1 T44       0.064200
     28 H72         -1.1230    -1.4500     5.3210 hc         1 T44       0.064200
     29 H8          -1.0260     0.8690     6.0920 h1         1 T44       0.046700
     30 H1           0.6240     2.2030    -2.2920 ha         1 T44       0.166500
     31 H3          -0.1340    -1.3790    -0.0740 ha         1 T44       0.166500
     32 HN81         1.8030     0.5170     6.6720 hn         1 T44       0.325800
     33 HN82         1.2690     1.3250     5.3590 hn         1 T44       0.325800
     34 HO4         -0.2490    -1.1570    -5.3580 ho         1 T44       0.439000
@<TRIPOS>BOND
     1     1     2 ar  
     2     1     6 ar  
     3     1     7 1   
     4     2     3 ar  
     5     2    25 1   
     6     3     4 ar  
     7     3    21 1   
     8     4     5 ar  
     9     4    17 1   
    10     5     6 ar  
    11     5    23 1   
    12     6    26 1   
    13     7     8 1   
    14     7    27 1   
    15     7    28 1   
    16     8     9 1   
    17     8    16 1   
    18     8    29 1   
    19     9    19 1   
    20     9    20 1   
    21    10    11 ar  
    22    10    15 ar  
    23    10    17 1   
    24    11    12 ar  
    25    11    30 1   
    26    12    13 ar  
    27    12    22 1   
    28    13    14 ar  
    29    13    18 1   
    30    14    15 ar  
    31    14    24 1   
    32    15    31 1   
    33    16    32 1   
    34    16    33 1   
    35    18    34 1   
@<TRIPOS>SUBSTRUCTURE
     1 T44         1 TEMP              0 ****  ****    0 ROOT
