@<TRIPOS>MOLECULE
T45
   14    14     1     0     0
SMALL
No Charge or Current Charge


@<TRIPOS>ATOM
      1 O1          -0.9280    -1.0430    -0.5410 o          1 T45      -0.458000
      2 C3           0.0070    -0.2960    -0.2680 c          1 T45       0.534600
      3 O            1.2790    -0.4960    -0.7550 os         1 T45      -0.438100
      4 C4           1.5140    -1.6260    -1.6170 c3         1 T45       0.153900
      5 C2          -0.1260     0.8980     0.6120 cc         1 T45       0.147500
      6 N3          -1.2230     1.3250     1.2110 nd         1 T45      -0.434800
      7 N2          -0.7390     2.4530     1.8760 na         1 T45       0.123600
      8 N1           0.6200     2.7220     1.6970 nd         1 T45      -0.506800
      9 C1           0.9610     1.7300     0.9040 cc         1 T45       0.251900
     10 H4C1         1.2830    -2.5680    -1.1020 h1         1 T45       0.051367
     11 H4C2         2.5670    -1.6580    -1.9260 h1         1 T45       0.051367
     12 H4C3         0.8970    -1.5640    -2.5230 h1         1 T45       0.051367
     13 H1           1.9850     1.6440     0.5640 h4         1 T45       0.065100
     14 H2          -1.3430     3.0420     2.4560 hn         1 T45       0.406000
@<TRIPOS>BOND
     1     1     2 2   
     2     2     3 1   
     3     2     5 1   
     4     3     4 1   
     5     4    10 1   
     6     4    11 1   
     7     4    12 1   
     8     5     6 2   
     9     5     9 1   
    10     6     7 1   
    11     7     8 1   
    12     7    14 1   
    13     8     9 2   
    14     9    13 1   
@<TRIPOS>SUBSTRUCTURE
     1 T45         1 TEMP              0 ****  ****    0 ROOT
