@<TRIPOS>MOLECULE
T45
   14    14     1     0     0
SMALL
bcc


@<TRIPOS>ATOM
      1 O1          -0.9200    -0.9870    -0.5060 o          1 T45      -0.507000
      2 C3           0.0410    -0.2960    -0.2810 c          1 T45       0.583600
      3 O            1.2540    -0.5030    -0.7590 os         1 T45      -0.414900
      4 C4           1.4440    -1.6390    -1.6060 c3         1 T45       0.130700
      5 C2           0.0150     0.9000     0.5720 cc         1 T45       0.147500
      6 N3          -1.1050     1.3020     1.1620 nd         1 T45      -0.434800
      7 N2          -0.7430     2.3610     1.8140 na         1 T45       0.173900
      8 N1           0.5170     2.7090     1.7170 nd         1 T45      -0.506800
      9 C1           1.0360     1.7900     0.9240 cc         1 T45       0.251900
     10 H4C1         1.2140    -2.5660    -1.0810 h1         1 T45       0.051367
     11 H4C2         2.4930    -1.6310    -1.8830 h1         1 T45       0.051367
     12 H4C3         0.8290    -1.5700    -2.5030 h1         1 T45       0.051367
     13 H1           2.0780     1.8010     0.6480 h4         1 T45       0.065100
     14 H2          -1.3990     2.8910     2.3710 hn         1 T45       0.355700
@<TRIPOS>BOND
     1     1     2 2   
     2     2     3 1   
     3     2     5 1   
     4     3     4 1   
     5     4    10 1   
     6     4    11 1   
     7     4    12 1   
     8     5     6 2   
     9     5     9 1   
    10     6     7 1   
    11     7     8 1   
    12     7    14 1   
    13     8     9 2   
    14     9    13 1   
@<TRIPOS>SUBSTRUCTURE
     1 T45         1 TEMP              0 ****  ****    0 ROOT
