@<TRIPOS>MOLECULE
T46
   57    59     1     0     0
SMALL
bcc


@<TRIPOS>ATOM
      1 C4           6.6290     2.2370     0.2540 c          1 T46       0.536100
      2 C5           6.4070     1.3180    -0.9390 c6         1 T46       0.086100
      3 C6           7.3930     0.1500    -0.9050 c3         1 T46      -0.116100
      4 C21         -5.3380     0.4100    -0.6880 c          1 T46       0.833500
      5 O21         -5.1830    -0.6780    -1.2000 o          1 T46      -0.604500
      6 N31         -5.7710     1.4940    -1.4080 ns         1 T46      -0.599500
      7 C41         -5.9960     2.7820    -0.9600 c          1 T46       0.739700
      8 O41         -6.3870     3.6450    -1.7250 o          1 T46      -0.638500
      9 C51         -5.7260     2.9790     0.4500 cc         1 T46      -0.297400
     10 C5A         -5.9310     4.3340     1.0420 c3         1 T46      -0.007900
     11 C61         -5.2950     1.9220     1.1600 cd         1 T46       0.072600
     12 N11         -5.1060     0.6660     0.6440 n          1 T46      -0.379000
     13 C1,         -4.5910    -0.3920     1.5130 c5         1 T46       0.326500
     14 C2,         -5.4310    -1.6700     1.5900 c5         1 T46      -0.153400
     15 C3,         -4.5690    -2.7500     0.9360 c5         1 T46       0.103100
     16 O3,         -4.5850    -3.9930     1.5940 oh         1 T46      -0.583800
     17 O4,         -3.3080    -0.7530     1.0930 os         1 T46      -0.355600
     18 C4,         -3.1600    -2.1610     1.0290 c5         1 T46       0.143100
     19 C5,         -2.2960    -2.5370    -0.1500 c3         1 T46       0.201400
     20 O5,         -0.9770    -2.0800     0.0610 os         1 T46      -0.545200
     21 P           -0.0060    -1.9790    -1.2660 p5         1 T46       1.458800
     22 O1P          0.3300    -3.3550    -1.7490 o          1 T46      -0.847500
     23 O2P         -0.5580    -0.9570    -2.2070 o          1 T46      -0.847500
     24 OPP          1.2510    -1.3560    -0.4080 os         1 T46      -0.690800
     25 P2           2.7900    -1.3100    -0.9720 p5         1 T46       1.458800
     26 O4P          3.6110    -2.3660    -0.3030 o          1 T46      -0.841000
     27 O3P          2.7840    -1.1570    -2.4570 o          1 T46      -0.841000
     28 O1           3.1180     0.1520    -0.2520 os         1 T46      -0.514200
     29 C1           4.4120     0.4700     0.1010 c6         1 T46       0.418900
     30 C2           4.3880     1.5970     1.1250 c6         1 T46       0.115100
     31 O2           3.7870     2.7150     0.5250 oh         1 T46      -0.542800
     32 C3           5.8200     1.9510     1.5140 c6         1 T46       0.001100
     33 O3           6.3940     0.8460     2.1740 oh         1 T46      -0.568800
     34 O4           7.4720     3.1020     0.2240 o          1 T46      -0.563100
     35 O5           5.0650     0.9030    -1.0700 os         1 T46      -0.402600
     36 H1           6.6170     1.9100    -1.8340 h1         1 T46       0.074700
     37 H2           7.2620    -0.4870    -0.0330 hc         1 T46       0.044033
     38 H3           7.2660    -0.4590    -1.8000 hc         1 T46       0.044033
     39 H4           8.4160     0.5250    -0.8990 hc         1 T46       0.044033
     40 H6          -6.9650     4.6630     0.9310 hc         1 T46       0.035367
     41 H7          -5.6930     4.3350     2.1050 hc         1 T46       0.035367
     42 H8          -5.3010     5.0810     0.5570 hc         1 T46       0.035367
     43 H10         -4.5430     0.0750     2.5000 h2         1 T46       0.043700
     44 H11         -5.5770    -1.9240     2.6410 hc         1 T46       0.050700
     45 H12         -6.4160    -1.5620     1.1390 hc         1 T46       0.050700
     46 H13         -4.8530    -2.8710    -0.1130 h1         1 T46       0.072700
     47 H14         -5.3730    -4.4690     1.3160 ho         1 T46       0.389000
     48 H15         -2.6950    -2.5250     1.9570 h1         1 T46       0.069700
     49 H16         -2.3200    -3.6280    -0.2570 h1         1 T46       0.030700
     50 H17         -2.7320    -2.1040    -1.0570 h1         1 T46       0.030700
     51 H20          4.9260    -0.3990     0.5330 h2         1 T46       0.059700
     52 H21          3.8460     1.2560     2.0170 h1         1 T46       0.063700
     53 H22          3.6200     3.3740     1.2060 ho         1 T46       0.368000
     54 H23          5.8230     2.8470     2.1490 h1         1 T46       0.026700
     55 H24          7.2310     1.1150     2.5670 ho         1 T46       0.390000
     56 H5          -5.9460     1.3160    -2.3890 hn         1 T46       0.339500
     57 H9          -5.0750     2.0170     2.2150 h4         1 T46       0.146000
@<TRIPOS>BOND
     1     1     2 1   
     2     1    32 1   
     3     1    34 2   
     4     2     3 1   
     5     2    35 1   
     6     2    36 1   
     7     3    37 1   
     8     3    38 1   
     9     3    39 1   
    10     4     5 2   
    11     4     6 1   
    12     4    12 1   
    13     6     7 1   
    14     6    56 1   
    15     7     8 2   
    16     7     9 1   
    17     9    10 1   
    18     9    11 2   
    19    10    40 1   
    20    10    41 1   
    21    10    42 1   
    22    11    12 1   
    23    11    57 1   
    24    12    13 1   
    25    13    14 1   
    26    13    17 1   
    27    13    43 1   
    28    14    15 1   
    29    14    44 1   
    30    14    45 1   
    31    15    16 1   
    32    15    18 1   
    33    15    46 1   
    34    16    47 1   
    35    17    18 1   
    36    18    19 1   
    37    18    48 1   
    38    19    20 1   
    39    19    49 1   
    40    19    50 1   
    41    20    21 1   
    42    21    22 1   
    43    21    23 1   
    44    21    24 1   
    45    24    25 1   
    46    25    26 1   
    47    25    27 1   
    48    25    28 1   
    49    28    29 1   
    50    29    30 1   
    51    29    35 1   
    52    29    51 1   
    53    30    31 1   
    54    30    32 1   
    55    30    52 1   
    56    31    53 1   
    57    32    33 1   
    58    32    54 1   
    59    33    55 1   
@<TRIPOS>SUBSTRUCTURE
     1 T46         1 TEMP              0 ****  ****    0 ROOT
