@<TRIPOS>MOLECULE
T46
   57    59     1     0     0
SMALL
No Charge or Current Charge


@<TRIPOS>ATOM
      1 C4           3.2040     1.3480     2.2720 c          1 T46       0.536100
      2 C5           2.5890     2.3650     1.2620 c6         1 T46       0.109300
      3 C6           3.6800     3.0610     0.3950 c3         1 T46      -0.116100
      4 C21         -4.1110     0.9030    -0.2730 c          1 T46       0.624000
      5 O21         -4.7040    -0.1580    -0.3780 o          1 T46      -0.529000
      6 N31         -4.7330     2.0600    -0.6220 ns         1 T46      -0.465500
      7 C41         -4.2600     3.3300    -0.5490 c          1 T46       0.597200
      8 O41         -4.9460     4.2760    -0.9010 o          1 T46      -0.563000
      9 C51         -2.8850     3.4350    -0.0160 cc         1 T46      -0.297400
     10 C5A         -2.3120     4.8290     0.0810 c3         1 T46      -0.007900
     11 C61         -2.2040     2.2950     0.3490 cd         1 T46       0.022600
     12 N11         -2.8000     1.0410     0.2310 n          1 T46      -0.312000
     13 C1,         -1.9910    -0.1550     0.5690 c5         1 T46       0.349700
     14 C2,         -2.4800    -0.7330     1.9370 c5         1 T46      -0.153400
     15 C3,         -2.7440    -2.2310     1.5850 c5         1 T46       0.126300
     16 O3,         -2.4440    -3.0980     2.6830 oh         1 T46      -0.706000
     17 O4,         -2.1020    -1.2200    -0.3810 os         1 T46      -0.402000
     18 C4,         -1.7900    -2.4080     0.3670 c5         1 T46       0.166300
     19 C5,         -1.9890    -3.6960    -0.4820 c3         1 T46       0.224600
     20 O5,         -0.7760    -4.0550    -1.1830 os         1 T46      -0.568400
     21 P           -0.1790    -3.1530    -2.3860 p5         1 T46       1.458800
     22 O1P          0.8210    -3.9640    -3.1420 o          1 T46      -0.847500
     23 O2P         -1.3020    -2.6830    -3.2510 o          1 T46      -0.847500
     24 OPP          0.5040    -2.0480    -1.4950 os         1 T46      -0.690800
     25 P2           1.3080    -0.9530    -2.2910 p5         1 T46       1.458800
     26 O4P          2.7620    -1.2760    -2.3790 o          1 T46      -0.841000
     27 O3P          0.7520    -0.5860    -3.6270 o          1 T46      -0.841000
     28 O1           1.0550     0.2650    -1.2750 os         1 T46      -0.537400
     29 C1           2.0620     0.5790    -0.3130 c6         1 T46       0.465300
     30 C2           2.3760    -0.5570     0.7410 c6         1 T46       0.138300
     31 O2           1.2150    -0.9030     1.5320 oh         1 T46      -0.665000
     32 C3           3.4990    -0.0850     1.7180 c6         1 T46       0.024300
     33 O3           4.7890    -0.1110     1.0600 oh         1 T46      -0.631000
     34 O4           3.4410     1.6490     3.4400 o          1 T46      -0.563100
     35 O5           1.5990     1.7580     0.3930 os         1 T46      -0.449000
     36 H1           2.0840     3.1360     1.8610 h1         1 T46       0.074700
     37 H2           4.3180     2.3470    -0.1370 hc         1 T46       0.044033
     38 H3           3.2250     3.7280    -0.3470 hc         1 T46       0.044033
     39 H4           4.3370     3.6730     1.0250 hc         1 T46       0.044033
     40 H6          -2.9190     5.4600     0.7430 hc         1 T46       0.035367
     41 H7          -1.2910     4.8120     0.4840 hc         1 T46       0.035367
     42 H8          -2.2720     5.3090    -0.9040 hc         1 T46       0.035367
     43 H10         -0.9440     0.1640     0.6390 h2         1 T46       0.043700
     44 H11         -1.6960    -0.6170     2.6940 hc         1 T46       0.050700
     45 H12         -3.3800    -0.2410     2.3250 hc         1 T46       0.050700
     46 H13         -3.7860    -2.3690     1.2560 h1         1 T46       0.072700
     47 H14         -3.0490    -2.8510     3.4210 ho         1 T46       0.488000
     48 H15         -0.7450    -2.3730     0.7010 h1         1 T46       0.069700
     49 H16         -2.2670    -4.5150     0.1940 h1         1 T46       0.030700
     50 H17         -2.8260    -3.5530    -1.1790 h1         1 T46       0.030700
     51 H20          2.9880     0.8180    -0.8570 h2         1 T46       0.059700
     52 H21          2.7420    -1.4470     0.2110 h1         1 T46       0.063700
     53 H22          1.3890    -1.7870     1.9230 ho         1 T46       0.467000
     54 H23          3.5200    -0.7640     2.5830 h1         1 T46       0.026700
     55 H24          5.4800    -0.0320     1.7570 ho         1 T46       0.429000
     56 H5          -5.6690     1.9620    -0.9780 hn         1 T46       0.339500
     57 H9          -1.1870     2.2830     0.7350 h4         1 T46       0.196000
@<TRIPOS>BOND
     1     1     2 1   
     2     1    32 1   
     3     1    34 2   
     4     2     3 1   
     5     2    35 1   
     6     2    36 1   
     7     3    37 1   
     8     3    38 1   
     9     3    39 1   
    10     4     5 2   
    11     4     6 1   
    12     4    12 1   
    13     6     7 1   
    14     6    56 1   
    15     7     8 2   
    16     7     9 1   
    17     9    10 1   
    18     9    11 2   
    19    10    40 1   
    20    10    41 1   
    21    10    42 1   
    22    11    12 1   
    23    11    57 1   
    24    12    13 1   
    25    13    14 1   
    26    13    17 1   
    27    13    43 1   
    28    14    15 1   
    29    14    44 1   
    30    14    45 1   
    31    15    16 1   
    32    15    18 1   
    33    15    46 1   
    34    16    47 1   
    35    17    18 1   
    36    18    19 1   
    37    18    48 1   
    38    19    20 1   
    39    19    49 1   
    40    19    50 1   
    41    20    21 1   
    42    21    22 1   
    43    21    23 1   
    44    21    24 1   
    45    24    25 1   
    46    25    26 1   
    47    25    27 1   
    48    25    28 1   
    49    28    29 1   
    50    29    30 1   
    51    29    35 1   
    52    29    51 1   
    53    30    31 1   
    54    30    32 1   
    55    30    52 1   
    56    31    53 1   
    57    32    33 1   
    58    32    54 1   
    59    33    55 1   
@<TRIPOS>SUBSTRUCTURE
     1 T46         1 TEMP              0 ****  ****    0 ROOT
