@<TRIPOS>MOLECULE
T47
   34    35     1     0     0
SMALL
bcc


@<TRIPOS>ATOM
      1 N1          -0.7540    -0.8970    -0.3330 n3         1 T47      -0.728600
      2 C4           0.3960    -1.0460    -1.1940 c3         1 T47       0.218100
      3 C5           1.6950    -0.8620    -0.4510 ca         1 T47      -0.079300
      4 C6           1.8560    -1.3630     0.8390 ca         1 T47      -0.106000
      5 C7           3.0680    -1.2270     1.4980 ca         1 T47      -0.125000
      6 C8           4.1430    -0.5940     0.8870 ca         1 T47      -0.120000
      7 C10          2.7640    -0.2190    -1.0650 ca         1 T47      -0.122000
      8 N           -3.2950    -0.0240     0.5550 n          1 T47      -0.483800
      9 C           -5.6140     0.0140    -0.2240 c3         1 T47      -0.177100
     10 O           -4.4950     1.8740     0.7560 o          1 T47      -0.605100
     11 C1          -4.4230     0.7040     0.4010 c          1 T47       0.675100
     12 C11         -0.9580     0.4770     0.0850 c6         1 T47       0.146300
     13 C12         -2.0840     0.5590     1.1010 c6         1 T47       0.097500
     14 C2          -3.0990    -1.3860     0.0990 c6         1 T47       0.097500
     15 C3          -1.9640    -1.4440    -0.9110 c6         1 T47       0.146300
     16 C9           3.9720    -0.0980    -0.3950 ca         1 T47       0.027400
     17 CL1          5.2960     0.7050    -1.1810 cl         1 T47      -0.116400
     18 H6           0.3770    -2.0590    -1.6090 h1         1 T47       0.041700
     19 H7           0.3690    -0.3620    -2.0580 h1         1 T47       0.041700
     20 H8           1.0220    -1.8500     1.3260 ha         1 T47       0.150000
     21 H9           3.1860    -1.6170     2.5010 ha         1 T47       0.136000
     22 H10          5.0880    -0.4880     1.4010 ha         1 T47       0.147000
     23 H11          2.6520     0.1860    -2.0630 ha         1 T47       0.144000
     24 H           -5.9110    -0.8740     0.3350 hc         1 T47       0.059700
     25 H17         -6.4530     0.7050    -0.2400 hc         1 T47       0.059700
     26 H1          -5.4100    -0.2970    -1.2490 hc         1 T47       0.059700
     27 H12         -0.0440     0.8580     0.5440 h1         1 T47       0.042700
     28 H13         -1.1910     1.1330    -0.7710 h1         1 T47       0.042700
     29 H14         -2.2670     1.5930     1.3810 h1         1 T47       0.061200
     30 H15         -1.8000     0.0090     2.0040 h1         1 T47       0.061200
     31 H2          -2.8490    -2.0170     0.9580 h1         1 T47       0.061200
     32 H3          -4.0060    -1.7860    -0.3450 h1         1 T47       0.061200
     33 H4          -2.2680    -0.9090    -1.8270 h1         1 T47       0.042700
     34 H5          -1.7900    -2.4870    -1.1860 h1         1 T47       0.042700
@<TRIPOS>BOND
     1     1     2 1   
     2     1    12 1   
     3     1    15 1   
     4     2     3 1   
     5     2    18 1   
     6     2    19 1   
     7     3     4 ar  
     8     3     7 ar  
     9     4     5 ar  
    10     4    20 1   
    11     5     6 ar  
    12     5    21 1   
    13     6    16 ar  
    14     6    22 1   
    15     7    16 ar  
    16     7    23 1   
    17     8    11 1   
    18     8    13 1   
    19     8    14 1   
    20     9    11 1   
    21     9    24 1   
    22     9    25 1   
    23     9    26 1   
    24    10    11 2   
    25    12    13 1   
    26    12    27 1   
    27    12    28 1   
    28    13    29 1   
    29    13    30 1   
    30    14    15 1   
    31    14    31 1   
    32    14    32 1   
    33    15    33 1   
    34    15    34 1   
    35    16    17 1   
@<TRIPOS>SUBSTRUCTURE
     1 T47         1 TEMP              0 ****  ****    0 ROOT
