@<TRIPOS>MOLECULE
T47
   34    35     1     0     0
SMALL
No Charge or Current Charge


@<TRIPOS>ATOM
      1 N1          -0.7110    -1.0420    -0.3920 n3         1 T47      -0.728600
      2 C4           0.5250    -1.4840    -1.0820 c3         1 T47       0.218100
      3 C5           1.8000    -1.1100    -0.3320 ca         1 T47      -0.079300
      4 C6           2.0850    -1.6980     0.9160 ca         1 T47      -0.088000
      5 C7           3.2570    -1.3550     1.6140 ca         1 T47      -0.107000
      6 C8           4.1510    -0.4190     1.0660 ca         1 T47      -0.102000
      7 C10          2.7010    -0.1710    -0.8750 ca         1 T47      -0.104000
      8 N           -3.3430     0.2450     0.1440 n          1 T47      -0.416800
      9 C           -5.8720     0.0940     0.2430 c3         1 T47      -0.177100
     10 O           -4.5710     1.7740     1.3400 o          1 T47      -0.605100
     11 C1          -4.5570     0.7660     0.6440 c          1 T47       0.608100
     12 C11         -0.8060     0.4360    -0.2580 c6         1 T47       0.146300
     13 C12         -2.0510     0.8750     0.5600 c6         1 T47       0.097500
     14 C2          -3.2320    -1.1900    -0.2750 c6         1 T47       0.097500
     15 C3          -1.9380    -1.5500    -1.0560 c6         1 T47       0.146300
     16 C9           3.8710     0.1710    -0.1770 ca         1 T47       0.119000
     17 Cl1          4.9880     1.3450    -0.8610 cl         1 T47      -0.208000
     18 H6           0.5130    -2.5770    -1.1960 h1         1 T47       0.041700
     19 H7           0.5620    -1.0610    -2.0960 h1         1 T47       0.041700
     20 H8           1.3920    -2.4190     1.3450 ha         1 T47       0.132000
     21 H9           3.4700    -1.8130     2.5780 ha         1 T47       0.118000
     22 H10          5.0570    -0.1510     1.6030 ha         1 T47       0.129000
     23 H11          2.4950     0.2950    -1.8350 ha         1 T47       0.126000
     24 H           -5.8760    -0.9390     0.6080 hc         1 T47       0.059700
     25 H17         -6.7500     0.6420     0.6030 hc         1 T47       0.059700
     26 H1          -5.8960    -0.0330    -0.8450 hc         1 T47       0.059700
     27 H12          0.0870     0.8420     0.2380 h1         1 T47       0.042700
     28 H13         -0.8590     0.9020    -1.2530 h1         1 T47       0.042700
     29 H14         -2.1370     1.9690     0.4950 h1         1 T47       0.061200
     30 H15         -1.8740     0.6280     1.6170 h1         1 T47       0.061200
     31 H2          -3.2770    -1.8150     0.6280 h1         1 T47       0.061200
     32 H3          -4.0870    -1.4700    -0.9050 h1         1 T47       0.061200
     33 H4          -2.0160    -1.1330    -2.0710 h1         1 T47       0.042700
     34 H5          -1.8910    -2.6440    -1.1640 h1         1 T47       0.042700
@<TRIPOS>BOND
     1     1     2 1   
     2     1    12 1   
     3     1    15 1   
     4     2     3 1   
     5     2    18 1   
     6     2    19 1   
     7     3     4 ar  
     8     3     7 ar  
     9     4     5 ar  
    10     4    20 1   
    11     5     6 ar  
    12     5    21 1   
    13     6    16 ar  
    14     6    22 1   
    15     7    16 ar  
    16     7    23 1   
    17     8    11 1   
    18     8    13 1   
    19     8    14 1   
    20     9    11 1   
    21     9    24 1   
    22     9    25 1   
    23     9    26 1   
    24    10    11 2   
    25    12    13 1   
    26    12    27 1   
    27    12    28 1   
    28    13    29 1   
    29    13    30 1   
    30    14    15 1   
    31    14    31 1   
    32    14    32 1   
    33    15    33 1   
    34    15    34 1   
    35    16    17 1   
@<TRIPOS>SUBSTRUCTURE
     1 T47         1 TEMP              0 ****  ****    0 ROOT
