@<TRIPOS>MOLECULE
T4A
   29    30     1     0     0
SMALL
bcc


@<TRIPOS>ATOM
      1 C1           0.0790    -0.5240     4.1800 ca         1 T4A       0.015700
      2 C2           1.2500    -0.1640     3.5200 ca         1 T4A      -0.080000
      3 C3           1.2010     0.4550     2.2800 ca         1 T4A       0.054900
      4 C4          -0.0150     0.7330     1.6700 ca         1 T4A       0.082100
      5 C5          -1.1840     0.3710     2.3320 ca         1 T4A       0.054900
      6 C6          -1.1420    -0.2410     3.5720 ca         1 T4A      -0.080000
      7 C7           0.1290    -1.1710     5.5250 c3         1 T4A      -0.202100
      8 C8          -0.2360    -0.2250     6.7010 c          1 T4A       0.937600
      9 C9          -0.0200     0.6310    -0.6780 ca         1 T4A       0.113100
     10 C14          0.0110     1.3480    -1.8650 ca         1 T4A      -0.090000
     11 C13          0.0510     0.6690    -3.0670 ca         1 T4A       0.017400
     12 C12          0.0640    -0.7280    -3.1330 ca         1 T4A       0.160100
     13 C11          0.0300    -1.4130    -1.9190 ca         1 T4A       0.017400
     14 C10         -0.0110    -0.7520    -0.6970 ca         1 T4A      -0.090000
     15 I3           2.9820     1.0010     1.3170 i          1 T4A      -0.189900
     16 I5          -3.0340     0.7860     1.4350 i          1 T4A      -0.189900
     17 I2           0.0990     1.7640    -4.8540 i          1 T4A      -0.174400
     18 I1           0.0350    -3.5170    -1.9000 i          1 T4A      -0.174400
     19 O8          -0.8770     0.8040     6.4310 o          1 T4A      -0.818800
     20 O9           0.1310    -0.6140     7.8250 o          1 T4A      -0.818800
     21 O4          -0.0640     1.3730     0.4710 os         1 T4A      -0.228200
     22 O1           0.1070    -1.2940    -4.3430 oh         1 T4A      -0.483100
     23 H21          2.2050    -0.3730     3.9830 ha         1 T4A       0.155000
     24 H61         -2.0610    -0.5200     4.0690 ha         1 T4A       0.155000
     25 H71          1.1150    -1.6050     5.6990 hc         1 T4A       0.040700
     26 H72         -0.5800    -2.0060     5.5550 hc         1 T4A       0.040700
     27 H6'1         0.0040     2.4300    -1.8360 ha         1 T4A       0.167500
     28 H2'1        -0.0370    -1.3250     0.2200 ha         1 T4A       0.167500
     29 H4'O         0.1120    -2.2590    -4.2990 ho         1 T4A       0.438000
@<TRIPOS>BOND
     1     1     2 ar  
     2     1     6 ar  
     3     1     7 1   
     4     2     3 ar  
     5     2    23 1   
     6     3     4 ar  
     7     3    15 1   
     8     4     5 ar  
     9     4    21 1   
    10     5     6 ar  
    11     5    16 1   
    12     6    24 1   
    13     7     8 1   
    14     7    25 1   
    15     7    26 1   
    16     8    19 1   
    17     8    20 1   
    18     9    10 ar  
    19     9    14 ar  
    20     9    21 1   
    21    10    11 ar  
    22    10    27 1   
    23    11    12 ar  
    24    11    17 1   
    25    12    13 ar  
    26    12    22 1   
    27    13    14 ar  
    28    13    18 1   
    29    14    28 1   
    30    22    29 1   
@<TRIPOS>SUBSTRUCTURE
     1 T4A         1 TEMP              0 ****  ****    0 ROOT
