@<TRIPOS>MOLECULE
T4A
   29    30     1     0     0
SMALL
No Charge or Current Charge


@<TRIPOS>ATOM
      1 C1          -0.0090    -0.5650     4.2430 ca         1 T4A       0.015700
      2 C2           1.2530    -0.2150     3.7220 ca         1 T4A      -0.062000
      3 C3           1.3550     0.4140     2.4710 ca         1 T4A       0.192000
      4 C4           0.1960     0.6970     1.7230 ca         1 T4A       0.082100
      5 C5          -1.0690     0.3540     2.2440 ca         1 T4A       0.192000
      6 C6          -1.1670    -0.2740     3.4960 ca         1 T4A      -0.062000
      7 C7          -0.1190    -1.2450     5.6030 c3         1 T4A      -0.202100
      8 C8          -0.2470    -0.1760     6.6940 c          1 T4A       0.727000
      9 C9           0.1870     0.6370    -0.6980 ca         1 T4A       0.113100
     10 C14          0.0250     1.3830    -1.8760 ca         1 T4A      -0.072000
     11 C13         -0.1030     0.7340    -3.1150 ca         1 T4A       0.154500
     12 C12         -0.0660    -0.6760    -3.1870 ca         1 T4A       0.160100
     13 C11          0.1020    -1.4210    -2.0000 ca         1 T4A       0.154500
     14 C10          0.2300    -0.7720    -0.7610 ca         1 T4A      -0.072000
     15 I3           3.3250     0.9240     1.6980 i          1 T4A      -0.327000
     16 I5          -2.8960     0.7840     1.1370 i          1 T4A      -0.327000
     17 I2          -0.3580     1.9440    -4.9090 i          1 T4A      -0.311500
     18 I1           0.1680    -3.5930    -2.0660 i          1 T4A      -0.311500
     19 O8          -1.3640     0.2480     6.9510 o          1 T4A      -0.713500
     20 O9           0.7810     0.3010     7.1510 o          1 T4A      -0.713500
     21 O4           0.3040     1.3170     0.4960 os         1 T4A      -0.228200
     22 O1          -0.1910    -1.3180    -4.3980 oh         1 T4A      -0.522100
     23 H21          2.1560    -0.4280     4.2870 ha         1 T4A       0.137000
     24 H61         -2.1480    -0.5320     3.8880 ha         1 T4A       0.137000
     25 H71          0.7990    -1.8260     5.7520 hc         1 T4A       0.040700
     26 H72         -1.0190    -1.8710     5.5830 hc         1 T4A       0.040700
     27 H6'1        -0.0050     2.4680    -1.8290 ha         1 T4A       0.149500
     28 H2'1         0.3640    -1.3710     0.1340 ha         1 T4A       0.149500
     29 H4'O        -0.1400    -2.2870    -4.2400 ho         1 T4A       0.477000
@<TRIPOS>BOND
     1     1     2 ar  
     2     1     6 ar  
     3     1     7 1   
     4     2     3 ar  
     5     2    23 1   
     6     3     4 ar  
     7     3    15 1   
     8     4     5 ar  
     9     4    21 1   
    10     5     6 ar  
    11     5    16 1   
    12     6    24 1   
    13     7     8 1   
    14     7    25 1   
    15     7    26 1   
    16     8    19 1   
    17     8    20 1   
    18     9    10 ar  
    19     9    14 ar  
    20     9    21 1   
    21    10    11 ar  
    22    10    27 1   
    23    11    12 ar  
    24    11    17 1   
    25    12    13 ar  
    26    12    22 1   
    27    13    14 ar  
    28    13    18 1   
    29    14    28 1   
    30    22    29 1   
@<TRIPOS>SUBSTRUCTURE
     1 T4A         1 TEMP              0 ****  ****    0 ROOT
