@<TRIPOS>MOLECULE
T4B
   61    65     1     0     0
SMALL
bcc


@<TRIPOS>ATOM
      1 C1           0.7090    -3.6610     7.9360 ca         1 T4B      -0.120000
      2 C2           4.1220    -2.0860     7.5260 cp         1 T4B      -0.015000
      3 C3           4.5960    -2.3770     6.2470 ca         1 T4B      -0.217000
      4 C7           3.1340    -3.5760     9.2800 ca         1 T4B      -0.120000
      5 C8           2.0820    -4.3260     9.7890 ca         1 T4B      -0.130000
      6 C9           5.5460    -2.8150     3.6290 c3         1 T4B      -0.025600
      7 C10          6.0480    -2.7030     2.1810 c          1 T4B       0.938600
      8 C11          5.5600    -1.5680     5.6550 ca         1 T4B       0.174100
      9 C12          6.0960    -0.5000     6.3800 ca         1 T4B      -0.173000
     10 C13          5.6600    -0.2510     7.6680 ca         1 T4B      -0.108000
     11 C14          4.6680    -1.0340     8.2480 ca         1 T4B      -0.174000
     12 C15          0.0870    -4.6320     4.4560 c3         1 T4B      -0.082100
     13 C16          1.8190    -1.5160     2.6870 ca         1 T4B      -0.017000
     14 C19          1.6930    -1.5260     4.1510 cc         1 T4B      -0.189300
     15 C20          1.5690    -2.6360     4.9630 cd         1 T4B      -0.063600
     16 C21          1.5030    -4.0830     4.6140 c3         1 T4B      -0.019100
     17 C22          3.1220    -1.0080     0.7140 ca         1 T4B      -0.123000
     18 C24          3.0550     3.0940     5.3010 ca         1 T4B      -0.140000
     19 C27          2.0120     0.9860     4.7510 ca         1 T4B      -0.105500
     20 C30          0.8250    -2.0470     1.8650 ca         1 T4B      -0.112000
     21 C            0.8710    -4.3760     9.1150 ca         1 T4B      -0.137000
     22 C4           1.3680     1.6030     3.6790 ca         1 T4B      -0.099000
     23 C5           1.7660    -2.9220     7.4280 ca         1 T4B       0.022800
     24 C6           3.0010    -2.8750     8.0850 cp         1 T4B       0.003000
     25 O            5.9000    -3.7440     1.5140 o          1 T4B      -0.818300
     26 O1           6.5120    -1.6150     1.8080 o          1 T4B      -0.818300
     27 O2           6.0250    -1.7340     4.4060 os         1 T4B      -0.272900
     28 C17          2.9670    -0.9910     2.0910 ca         1 T4B      -0.112000
     29 N            1.6010    -2.1700     6.2370 na         1 T4B       0.165300
     30 N1           1.7520    -0.8460     6.2980 nd         1 T4B      -0.500800
     31 C18          1.8130    -0.4360     5.0470 cc         1 T4B       0.380800
     32 C23          2.8600     1.7460     5.5580 ca         1 T4B      -0.099000
     33 C25          2.4090     3.7030     4.2320 ca         1 T4B      -0.132000
     34 C26          1.5650     2.9530     3.4220 ca         1 T4B      -0.140000
     35 C28          2.1260    -1.5390    -0.0950 ca         1 T4B      -0.131000
     36 C29          0.9760    -2.0580     0.4850 ca         1 T4B      -0.123000
     37 H91          5.8560    -3.7700     4.0680 h1         1 T4B       0.020200
     38 H92          4.4480    -2.8150     3.5990 h1         1 T4B       0.020200
     39 H3           4.2010    -3.2360     5.7230 ha         1 T4B       0.141000
     40 H14          4.3020    -0.8060     9.2410 ha         1 T4B       0.119000
     41 H13          6.0860     0.5760     8.2230 ha         1 T4B       0.115000
     42 H12          6.8530     0.1270     5.9240 ha         1 T4B       0.145000
     43 H1          -0.2440    -3.6600     7.4250 ha         1 T4B       0.141000
     44 H            0.0480    -4.9560     9.5090 ha         1 T4B       0.127000
     45 H8           2.2120    -4.8730    10.7130 ha         1 T4B       0.125000
     46 H7           4.0800    -3.5510     9.8060 ha         1 T4B       0.139000
     47 H4           0.7010     1.0310     3.0470 ha         1 T4B       0.144000
     48 H26          1.0550     3.4210     2.5900 ha         1 T4B       0.121500
     49 H25          2.5640     4.7550     4.0290 ha         1 T4B       0.117000
     50 H24          3.7200     3.6710     5.9310 ha         1 T4B       0.121500
     51 H23          3.3800     1.2660     6.3780 ha         1 T4B       0.144000
     52 H17          3.7560    -0.5850     2.7100 ha         1 T4B       0.138500
     53 H22          4.0330    -0.6210     0.2790 ha         1 T4B       0.134000
     54 H28          2.2470    -1.5530    -1.1710 ha         1 T4B       0.120000
     55 H29          0.1920    -2.4730    -0.1360 ha         1 T4B       0.134000
     56 H30         -0.0800    -2.4430     2.3070 ha         1 T4B       0.138500
     57 H211         2.0450    -4.2260     3.6770 hc         1 T4B       0.067700
     58 H212         2.0380    -4.6680     5.3670 hc         1 T4B       0.067700
     59 H151        -0.4860    -4.5570     5.3790 hc         1 T4B       0.031033
     60 H152         0.1220    -5.6840     4.1720 hc         1 T4B       0.031033
     61 H153        -0.4620    -4.0960     3.6830 hc         1 T4B       0.031033
@<TRIPOS>BOND
     1     1    21 ar  
     2     1    23 ar  
     3     1    43 1   
     4     2     3 ar  
     5     2    11 ar  
     6     2    24 1   
     7     3     8 ar  
     8     3    39 1   
     9     4     5 ar  
    10     4    24 ar  
    11     4    46 1   
    12     5    21 ar  
    13     5    45 1   
    14     6     7 1   
    15     6    27 1   
    16     6    37 1   
    17     6    38 1   
    18     7    25 1   
    19     7    26 1   
    20     8     9 ar  
    21     8    27 1   
    22     9    10 ar  
    23     9    42 1   
    24    10    11 ar  
    25    10    41 1   
    26    11    40 1   
    27    12    16 1   
    28    12    59 1   
    29    12    60 1   
    30    12    61 1   
    31    13    14 1   
    32    13    20 ar  
    33    13    28 ar  
    34    14    15 2   
    35    14    31 1   
    36    15    16 1   
    37    15    29 1   
    38    16    57 1   
    39    16    58 1   
    40    17    28 ar  
    41    17    35 ar  
    42    17    53 1   
    43    18    32 ar  
    44    18    33 ar  
    45    18    50 1   
    46    19    22 ar  
    47    19    31 1   
    48    19    32 ar  
    49    20    36 ar  
    50    20    56 1   
    51    21    44 1   
    52    22    34 ar  
    53    22    47 1   
    54    23    24 ar  
    55    23    29 1   
    56    28    52 1   
    57    29    30 1   
    58    30    31 2   
    59    32    51 1   
    60    33    34 ar  
    61    33    49 1   
    62    34    48 1   
    63    35    36 ar  
    64    35    54 1   
    65    36    55 1   
@<TRIPOS>SUBSTRUCTURE
     1 T4B         1 TEMP              0 ****  ****    0 ROOT
