@<TRIPOS>MOLECULE
T4B
   61    65     1     0     0
SMALL
No Charge or Current Charge


@<TRIPOS>ATOM
      1 C1           0.5450    -3.4220     8.0840 ca         1 T4B      -0.102000
      2 C2           4.1560    -2.2680     7.3180 cp         1 T4B      -0.015000
      3 C3           4.6050    -2.5640     6.0090 ca         1 T4B      -0.199000
      4 C7           3.1690    -3.8270     9.0270 ca         1 T4B      -0.102000
      5 C8           2.0840    -4.4810     9.6420 ca         1 T4B      -0.112000
      6 C9           5.5210    -3.1150     3.3010 c3         1 T4B      -0.002400
      7 C10          6.1620    -3.1930     1.8830 c          1 T4B       0.728000
      8 C11          5.6810    -1.8580     5.4310 ca         1 T4B       0.174100
      9 C12          6.3340    -0.8630     6.1760 ca         1 T4B      -0.155000
     10 C13          5.9210    -0.5730     7.4870 ca         1 T4B      -0.090000
     11 C14          4.8410    -1.2710     8.0510 ca         1 T4B      -0.156000
     12 C15          0.0380    -4.5260     4.7120 c3         1 T4B      -0.082100
     13 C16          1.9290    -1.4000     2.8890 ca         1 T4B      -0.017000
     14 C19          1.5860    -1.3010     4.3170 cc         1 T4B      -0.124000
     15 C20          1.4580    -2.4290     5.0950 cd         1 T4B      -0.114300
     16 C21          1.4520    -3.9120     4.7460 c3         1 T4B      -0.019100
     17 C22          3.3650    -0.7340     1.0200 ca         1 T4B      -0.105000
     18 C24          2.3110     3.5610     5.4340 ca         1 T4B      -0.122000
     19 C27          1.8100     1.2350     4.8250 ca         1 T4B      -0.105500
     20 C30          1.2200    -2.2450     2.0110 ca         1 T4B      -0.094000
     21 C            0.7750    -4.2780     9.1730 ca         1 T4B      -0.119000
     22 C4           1.3630     1.6970     3.5650 ca         1 T4B      -0.081000
     23 C5           1.6350    -2.7910     7.4620 ca         1 T4B       0.022800
     24 C6           2.9760    -2.9680     7.9190 cp         1 T4B       0.003000
     25 O            5.7800    -4.0860     1.1390 o          1 T4B      -0.713000
     26 O1           7.0430    -2.4000     1.5730 o          1 T4B      -0.713000
     27 O2           6.1230    -2.1030     4.1460 os         1 T4B      -0.296100
     28 C17          3.0050    -0.6430     2.3750 ca         1 T4B      -0.094000
     29 N            1.4960    -1.8980     6.3940 na         1 T4B       0.216000
     30 N1           1.6400    -0.5330     6.4790 nd         1 T4B      -0.500800
     31 C18          1.7190    -0.1900     5.2070 cc         1 T4B       0.315500
     32 C23          2.2540     2.1960     5.7660 ca         1 T4B      -0.081000
     33 C25          1.9010     3.9950     4.1650 ca         1 T4B      -0.114000
     34 C26          1.4190     3.0620     3.2340 ca         1 T4B      -0.122000
     35 C28          2.6520    -1.5810     0.1580 ca         1 T4B      -0.113000
     36 C29          1.5770    -2.3350     0.6540 ca         1 T4B      -0.105000
     37 H91          5.6220    -4.1030     3.7670 h1         1 T4B       0.020200
     38 H92          4.4520    -2.9100     3.1670 h1         1 T4B       0.020200
     39 H3           4.1010    -3.3430     5.4520 ha         1 T4B       0.123000
     40 H14          4.5150    -1.0290     9.0600 ha         1 T4B       0.101000
     41 H13          6.4310     0.1980     8.0610 ha         1 T4B       0.097000
     42 H12          7.1640    -0.3180     5.7350 ha         1 T4B       0.127000
     43 H1          -0.4680    -3.2440     7.7310 ha         1 T4B       0.123000
     44 H           -0.0610    -4.7770     9.6600 ha         1 T4B       0.109000
     45 H8           2.2600    -5.1390    10.4890 ha         1 T4B       0.107000
     46 H7           4.1740    -3.9850     9.4100 ha         1 T4B       0.121000
     47 H4           0.9420     1.0090     2.8380 ha         1 T4B       0.126000
     48 H26          1.0770     3.3980     2.2580 ha         1 T4B       0.103500
     49 H25          1.9420     5.0510     3.9090 ha         1 T4B       0.099000
     50 H24          2.6720     4.2820     6.1640 ha         1 T4B       0.103500
     51 H23          2.5790     1.8860     6.7570 ha         1 T4B       0.126000
     52 H17          3.5840    -0.0000     3.0330 ha         1 T4B       0.120500
     53 H22          4.2030    -0.1520     0.6410 ha         1 T4B       0.116000
     54 H28          2.9300    -1.6520    -0.8910 ha         1 T4B       0.102000
     55 H29          1.0180    -2.9870    -0.0130 ha         1 T4B       0.116000
     56 H30          0.3700    -2.8170     2.3680 ha         1 T4B       0.120500
     57 H211         1.9410    -4.0820     3.7800 hc         1 T4B       0.067700
     58 H212         2.0510    -4.4820     5.4660 hc         1 T4B       0.067700
     59 H151        -0.4160    -4.5210     5.7090 hc         1 T4B       0.031033
     60 H152         0.0830    -5.5660     4.3680 hc         1 T4B       0.031033
     61 H153        -0.6230    -3.9700     4.0380 hc         1 T4B       0.031033
@<TRIPOS>BOND
     1     1    21 ar  
     2     1    23 ar  
     3     1    43 1   
     4     2     3 ar  
     5     2    11 ar  
     6     2    24 1   
     7     3     8 ar  
     8     3    39 1   
     9     4     5 ar  
    10     4    24 ar  
    11     4    46 1   
    12     5    21 ar  
    13     5    45 1   
    14     6     7 1   
    15     6    27 1   
    16     6    37 1   
    17     6    38 1   
    18     7    25 1   
    19     7    26 1   
    20     8     9 ar  
    21     8    27 1   
    22     9    10 ar  
    23     9    42 1   
    24    10    11 ar  
    25    10    41 1   
    26    11    40 1   
    27    12    16 1   
    28    12    59 1   
    29    12    60 1   
    30    12    61 1   
    31    13    14 1   
    32    13    20 ar  
    33    13    28 ar  
    34    14    15 2   
    35    14    31 1   
    36    15    16 1   
    37    15    29 1   
    38    16    57 1   
    39    16    58 1   
    40    17    28 ar  
    41    17    35 ar  
    42    17    53 1   
    43    18    32 ar  
    44    18    33 ar  
    45    18    50 1   
    46    19    22 ar  
    47    19    31 1   
    48    19    32 ar  
    49    20    36 ar  
    50    20    56 1   
    51    21    44 1   
    52    22    34 ar  
    53    22    47 1   
    54    23    24 ar  
    55    23    29 1   
    56    28    52 1   
    57    29    30 1   
    58    30    31 2   
    59    32    51 1   
    60    33    34 ar  
    61    33    49 1   
    62    34    48 1   
    63    35    36 ar  
    64    35    54 1   
    65    36    55 1   
@<TRIPOS>SUBSTRUCTURE
     1 T4B         1 TEMP              0 ****  ****    0 ROOT
