@<TRIPOS>MOLECULE
T4C
   28    30     1     0     0
SMALL
No Charge or Current Charge


@<TRIPOS>ATOM
      1 C2          -7.4180    -8.6630    14.4910 ca         1 T4C      -0.074000
      2 O1          -6.4330    -5.1500    14.4450 o          1 T4C      -0.720500
      3 C4          -8.2180   -11.0600    14.2230 cp         1 T4C       0.018000
      4 C7          -8.6310   -13.6670    15.2640 ca         1 T4C       0.107000
      5 C6          -9.6410   -13.0420    14.5160 ca         1 T4C      -0.110500
      6 Cl          -8.8870   -15.2830    15.9080 cl         1 T4C      -0.251000
      7 C5          -9.4360   -11.7490    14.0020 ca         1 T4C      -0.101000
      8 C8          -7.4190   -13.0010    15.5030 ca         1 T4C      -0.110500
      9 C9          -7.2160   -11.7070    14.9890 ca         1 T4C      -0.101000
     10 C3          -7.9990    -9.6820    13.6860 cp         1 T4C      -0.062000
     11 C10         -8.3490    -9.3130    12.3680 ca         1 T4C      -0.094800
     12 C13         -8.1540    -8.0460    11.8870 ca         1 T4C      -0.063200
     13 N           -8.5770    -7.9710    10.5690 na         1 T4C      -0.239700
     14 C12         -9.0580    -9.2230    10.1410 cc         1 T4C      -0.192100
     15 C11         -8.9100   -10.0390    11.2510 cd         1 T4C      -0.250200
     16 C14         -7.5890    -7.0340    12.6730 ca         1 T4C      -0.099000
     17 C1          -7.2080    -7.3400    14.0050 ca         1 T4C      -0.114600
     18 C           -6.5880    -6.2760    14.8970 c          1 T4C       0.704600
     19 O           -6.2650    -6.5800    16.0370 o          1 T4C      -0.720500
     20 H1          -7.1390    -8.9050    15.5130 ha         1 T4C       0.133000
     21 H2         -10.5820   -13.5560    14.3380 ha         1 T4C       0.117000
     22 H3         -10.2330   -11.2690    13.4400 ha         1 T4C       0.127000
     23 H4          -6.6380   -13.4850    16.0840 ha         1 T4C       0.117000
     24 H5          -6.2700   -11.2040    15.1750 ha         1 T4C       0.127000
     25 H6          -8.5380    -7.1320     9.9970 hn         1 T4C       0.338000
     26 H7          -9.4360    -9.4180     9.1400 h4         1 T4C       0.191000
     27 H8          -9.1680   -11.0950    11.2630 ha         1 T4C       0.189000
     28 H9          -7.4440    -6.0380    12.2600 ha         1 T4C       0.133000
@<TRIPOS>BOND
     1     1    10 ar  
     2     1    17 ar  
     3     1    20 1   
     4     2    18 1   
     5     3     7 ar  
     6     3     9 ar  
     7     3    10 1   
     8     4     5 ar  
     9     4     6 1   
    10     4     8 ar  
    11     5     7 ar  
    12     5    21 1   
    13     7    22 1   
    14     8     9 ar  
    15     8    23 1   
    16     9    24 1   
    17    10    11 ar  
    18    11    12 ar  
    19    11    15 1   
    20    12    13 1   
    21    12    16 ar  
    22    13    14 1   
    23    13    25 1   
    24    14    15 2   
    25    14    26 1   
    26    15    27 1   
    27    16    17 ar  
    28    16    28 1   
    29    17    18 1   
    30    18    19 1   
@<TRIPOS>SUBSTRUCTURE
     1 T4C         1 TEMP              0 ****  ****    0 ROOT
