@<TRIPOS>MOLECULE
T4C
   28    30     1     0     0
SMALL
abcg2


@<TRIPOS>ATOM
      1 C2          -7.4240    -8.7020    14.4430 ca         1 T4C      -0.074000
      2 O1          -6.4190    -5.1880    14.4300 o          1 T4C      -0.720500
      3 C4          -8.2160   -11.0530    14.2110 cp         1 T4C       0.018000
      4 C7          -8.6140   -13.6040    15.2760 ca         1 T4C       0.107000
      5 C6          -9.6070   -13.0260    14.4980 ca         1 T4C      -0.110500
      6 CL          -8.8610   -15.2080    15.9400 cl         1 T4C      -0.251000
      7 C5          -9.4010   -11.7580    13.9710 ca         1 T4C      -0.101000
      8 C8          -7.4270   -12.9330    15.5370 ca         1 T4C      -0.110500
      9 C9          -7.2370   -11.6650    15.0030 ca         1 T4C      -0.101000
     10 C3          -8.0060    -9.6960    13.6630 cp         1 T4C      -0.062000
     11 C10         -8.3840    -9.3590    12.3430 ca         1 T4C      -0.094800
     12 C13         -8.1610    -8.0290    11.8910 ca         1 T4C      -0.063200
     13 N           -8.5860    -7.9630    10.5830 na         1 T4C      -0.239700
     14 C12         -9.0530    -9.1940    10.1930 cc         1 T4C      -0.192100
     15 C11         -8.9480   -10.0780    11.2360 cd         1 T4C      -0.250200
     16 C14         -7.5890    -7.0450    12.6900 ca         1 T4C      -0.099000
     17 C1          -7.2130    -7.3880    13.9820 ca         1 T4C      -0.114600
     18 C           -6.5810    -6.3450    14.9000 c          1 T4C       0.704600
     19 O           -6.2660    -6.7160    16.0610 o          1 T4C      -0.720500
     20 H1          -7.1340    -8.9260    15.4600 ha         1 T4C       0.133000
     21 H2         -10.5320   -13.5550    14.3120 ha         1 T4C       0.117000
     22 H3         -10.1860   -11.3050    13.3820 ha         1 T4C       0.127000
     23 H4          -6.6590   -13.3970    16.1400 ha         1 T4C       0.117000
     24 H5          -6.3050   -11.1500    15.1950 ha         1 T4C       0.127000
     25 H6          -8.5450    -7.1450     9.9990 hn         1 T4C       0.338000
     26 H7          -9.4250    -9.3460     9.1930 h4         1 T4C       0.191000
     27 H8          -9.2360   -11.1140    11.2050 ha         1 T4C       0.189000
     28 H9          -7.4300    -6.0400    12.3260 ha         1 T4C       0.133000
@<TRIPOS>BOND
     1     1    10 ar  
     2     1    17 ar  
     3     1    20 1   
     4     2    18 1   
     5     3     7 ar  
     6     3     9 ar  
     7     3    10 1   
     8     4     5 ar  
     9     4     6 1   
    10     4     8 ar  
    11     5     7 ar  
    12     5    21 1   
    13     7    22 1   
    14     8     9 ar  
    15     8    23 1   
    16     9    24 1   
    17    10    11 ar  
    18    11    12 ar  
    19    11    15 1   
    20    12    13 1   
    21    12    16 ar  
    22    13    14 1   
    23    13    25 1   
    24    14    15 2   
    25    14    26 1   
    26    15    27 1   
    27    16    17 ar  
    28    16    28 1   
    29    17    18 1   
    30    18    19 1   
@<TRIPOS>SUBSTRUCTURE
     1 T4C         1 TEMP              0 ****  ****    0 ROOT
