@<TRIPOS>MOLECULE
T4D
   35    36     1     0     0
SMALL
No Charge or Current Charge


@<TRIPOS>ATOM
      1 N1           0.4530     0.5020    -1.0850 n3         1 T4D      -0.718500
      2 C4           0.7810     1.3250     0.1050 c6         1 T4D       0.170300
      3 C5           2.3050     1.3600     0.3950 c6         1 T4D       0.100000
      4 C6          -2.1530     0.2440    -0.1800 ca         1 T4D      -0.266500
      5 C7          -2.5640     1.3130     0.6510 ca         1 T4D      -0.028000
      6 C8          -3.3340     1.0760     1.8000 ca         1 T4D      -0.112000
      7 C10         -3.3110    -1.3020     1.3230 ca         1 T4D      -0.097000
      8 N            2.9810     0.0230     0.3980 n          1 T4D      -0.421800
      9 C            4.8310     0.8820     1.9040 c3         1 T4D      -0.177100
     10 O            4.9950    -1.0720     0.5360 o          1 T4D      -0.596100
     11 C1           4.3010    -0.1240     0.8800 c          1 T4D       0.610100
     12 C11         -2.5370    -1.0860     0.1640 ca         1 T4D       0.086000
     13 C12         -2.1730    -2.2510    -0.6050 cg         1 T4D       0.298000
     14 C2           2.4650    -0.9360    -0.6280 c6         1 T4D       0.100000
     15 C3           0.9340    -0.8840    -0.8660 c6         1 T4D       0.170300
     16 C9          -3.7080    -0.2310     2.1380 ca         1 T4D      -0.062000
     17 N2          -1.8800    -3.2090    -1.2060 n1         1 T4D      -0.401000
     18 O1          -1.3210     2.0770    -1.9690 o          1 T4D      -0.524000
     19 O2          -1.3270    -0.3580    -2.6890 o          1 T4D      -0.524000
     20 S           -1.1560     0.6560    -1.6440 sy         1 T4D       1.156600
     21 H6           0.4400     2.3620    -0.0290 h1         1 T4D       0.064700
     22 H7           0.2680     0.9320     0.9950 h1         1 T4D       0.064700
     23 H8           2.7870     1.9860    -0.3690 h1         1 T4D       0.066950
     24 H9           2.4460     1.8620     1.3610 h1         1 T4D       0.066950
     25 H10         -2.2880     2.3390     0.4120 ha         1 T4D       0.139000
     26 H11         -3.6410     1.9090     2.4290 ha         1 T4D       0.125000
     27 H13         -3.6090    -2.3120     1.5990 ha         1 T4D       0.132000
     28 H            4.1030     0.9890     2.7160 hc         1 T4D       0.061700
     29 H14          5.8210     0.6090     2.2850 hc         1 T4D       0.061700
     30 H1           4.8440     1.8810     1.4550 hc         1 T4D       0.061700
     31 H2           2.9700    -0.7250    -1.5800 h1         1 T4D       0.066950
     32 H3           2.7340    -1.9630    -0.3410 h1         1 T4D       0.066950
     33 H4           0.4350    -1.3290     0.0070 h1         1 T4D       0.064700
     34 H5           0.7090    -1.5250    -1.7310 h1         1 T4D       0.064700
     35 H12         -4.3040    -0.4140     3.0290 ha         1 T4D       0.126000
@<TRIPOS>BOND
     1     1     2 1   
     2     1    15 1   
     3     1    20 1   
     4     2     3 1   
     5     2    21 1   
     6     2    22 1   
     7     3     8 1   
     8     3    23 1   
     9     3    24 1   
    10     4     5 ar  
    11     4    12 ar  
    12     4    20 1   
    13     5     6 ar  
    14     5    25 1   
    15     6    16 ar  
    16     6    26 1   
    17     7    12 ar  
    18     7    16 ar  
    19     7    27 1   
    20     8    11 1   
    21     8    14 1   
    22     9    11 1   
    23     9    28 1   
    24     9    29 1   
    25     9    30 1   
    26    10    11 2   
    27    12    13 1   
    28    13    17 3   
    29    14    15 1   
    30    14    31 1   
    31    14    32 1   
    32    15    33 1   
    33    15    34 1   
    34    16    35 1   
    35    18    20 2   
    36    19    20 2   
@<TRIPOS>SUBSTRUCTURE
     1 T4D         1 TEMP              0 ****  ****    0 ROOT
