@<TRIPOS>MOLECULE
T4D
   35    36     1     0     0
SMALL
abcg2


@<TRIPOS>ATOM
      1 N1           0.4660     0.5090    -1.0290 n3         1 T4D      -0.718500
      2 C4           0.9730     1.4840    -0.0620 c6         1 T4D       0.170300
      3 C5           2.4920     1.4700    -0.0990 c6         1 T4D       0.100000
      4 C6          -2.0840     0.2200    -0.0820 ca         1 T4D      -0.266500
      5 C7          -2.4070     1.2190     0.8230 ca         1 T4D      -0.028000
      6 C8          -3.1130     0.9100     1.9780 ca         1 T4D      -0.112000
      7 C10         -3.1840    -1.3990     1.3300 ca         1 T4D      -0.097000
      8 N            2.9930     0.1340     0.1400 n          1 T4D      -0.421800
      9 C            4.3500     0.8720     2.0400 c3         1 T4D      -0.177100
     10 O            4.2500    -1.3730     1.2470 o          1 T4D      -0.596100
     11 C1           3.8640    -0.2200     1.1170 c          1 T4D       0.610100
     12 C11         -2.4730    -1.1030     0.1670 ca         1 T4D       0.086000
     13 C12         -2.1980    -2.2010    -0.7060 cg         1 T4D       0.298000
     14 C2           2.4770    -0.8380    -0.7990 c6         1 T4D       0.100000
     15 C3           0.9580    -0.8480    -0.7800 c6         1 T4D       0.170300
     16 C9          -3.4990    -0.3960     2.2310 ca         1 T4D      -0.062000
     17 N2          -2.0190    -3.1530    -1.3270 n1         1 T4D      -0.401000
     18 O1          -1.3370     2.0780    -1.7570 o          1 T4D      -0.524000
     19 O2          -1.3540    -0.3060    -2.5440 o          1 T4D      -0.524000
     20 S           -1.1060     0.6690    -1.5010 sy         1 T4D       1.156600
     21 H6           0.6280     2.4820    -0.3230 h1         1 T4D       0.064700
     22 H7           0.6260     1.2490     0.9520 h1         1 T4D       0.064700
     23 H8           2.8340     1.8200    -1.0780 h1         1 T4D       0.066950
     24 H9           2.8590     2.1710     0.6450 h1         1 T4D       0.066950
     25 H10         -2.1210     2.2440     0.6330 ha         1 T4D       0.139000
     26 H11         -3.3630     1.6980     2.6750 ha         1 T4D       0.125000
     27 H13         -3.4890    -2.4190     1.5200 ha         1 T4D       0.132000
     28 H            3.5310     1.3520     2.5760 hc         1 T4D       0.061700
     29 H14          5.0270     0.4390     2.7710 hc         1 T4D       0.061700
     30 H1           4.8860     1.6500     1.4930 hc         1 T4D       0.061700
     31 H2           2.8280    -0.5970    -1.8070 h1         1 T4D       0.066950
     32 H3           2.8400    -1.8290    -0.5420 h1         1 T4D       0.066950
     33 H4           0.6060    -1.2230     0.1900 h1         1 T4D       0.064700
     34 H5           0.6060    -1.5200    -1.5600 h1         1 T4D       0.064700
     35 H12         -4.0520    -0.6390     3.1280 ha         1 T4D       0.126000
@<TRIPOS>BOND
     1     1     2 1   
     2     1    15 1   
     3     1    20 1   
     4     2     3 1   
     5     2    21 1   
     6     2    22 1   
     7     3     8 1   
     8     3    23 1   
     9     3    24 1   
    10     4     5 ar  
    11     4    12 ar  
    12     4    20 1   
    13     5     6 ar  
    14     5    25 1   
    15     6    16 ar  
    16     6    26 1   
    17     7    12 ar  
    18     7    16 ar  
    19     7    27 1   
    20     8    11 1   
    21     8    14 1   
    22     9    11 1   
    23     9    28 1   
    24     9    29 1   
    25     9    30 1   
    26    10    11 2   
    27    12    13 1   
    28    13    17 3   
    29    14    15 1   
    30    14    31 1   
    31    14    32 1   
    32    15    33 1   
    33    15    34 1   
    34    16    35 1   
    35    18    20 2   
    36    19    20 2   
@<TRIPOS>SUBSTRUCTURE
     1 T4D         1 TEMP              0 ****  ****    0 ROOT
