@<TRIPOS>MOLECULE
T4E
   32    34     1     0     0
SMALL
No Charge or Current Charge


@<TRIPOS>ATOM
      1 N2           2.1840    -2.8150    -0.1820 nb         1 T4E      -0.160000
      2 N1           0.9310    -2.3270    -0.1740 nb         1 T4E      -0.247000
      3 C6           0.7140    -1.0060     0.0350 cp         1 T4E       0.238500
      4 C5           1.8980    -0.0960     0.1320 cq         1 T4E       0.210500
      5 N4           3.1240    -0.6510     0.2360 nb         1 T4E      -0.218000
      6 C3           3.2080    -1.9750     0.0450 ca         1 T4E       0.328900
      7 C10         -3.4210     0.1700     0.7150 ca         1 T4E       0.155100
      8 C11         -2.3710     0.9080     1.2820 ca         1 T4E      -0.206000
      9 C12         -1.0370     0.5260     1.0620 ca         1 T4E      -0.046000
     10 C7          -0.7170    -0.6020     0.2630 cp         1 T4E      -0.160500
     11 C8          -1.7950    -1.3420    -0.2950 ca         1 T4E      -0.035000
     12 C9          -3.1300    -0.9620    -0.0760 ca         1 T4E       0.071000
     13 C16          1.8760     4.1490    -0.7920 ca         1 T4E      -0.091000
     14 C17          2.8590     3.6180     0.0560 ca         1 T4E      -0.119500
     15 C18          2.8700     2.2440     0.3550 ca         1 T4E      -0.070500
     16 C13          1.8890     1.3810    -0.1880 cq         1 T4E      -0.168500
     17 C14          0.9100     1.9280    -1.0490 ca         1 T4E      -0.070500
     18 C15          0.9040     3.3020    -1.3440 ca         1 T4E      -0.119500
     19 N3           4.4540    -2.5180     0.0920 nv         1 T4E      -1.065900
     20 Cl1         -4.4240    -1.9180    -0.8050 cl         1 T4E      -0.180000
     21 H1          -2.5800     1.7790     1.8990 ha         1 T4E       0.118000
     22 H2          -0.2430     1.1080     1.5260 ha         1 T4E       0.122000
     23 H3          -1.5990    -2.2150    -0.9130 ha         1 T4E       0.144000
     24 H4           1.8690     5.2120    -1.0230 ha         1 T4E       0.115000
     25 H5           3.6150     4.2720     0.4840 ha         1 T4E       0.117500
     26 H6           3.6420     1.8640     1.0220 ha         1 T4E       0.125000
     27 H7           0.1510     1.2960    -1.5060 ha         1 T4E       0.125000
     28 H8           0.1440     3.7090    -2.0080 ha         1 T4E       0.117500
     29 H9           5.2220    -1.9590     0.4600 hn         1 T4E       0.507500
     30 H10          4.5530    -3.5300     0.1590 hn         1 T4E       0.507500
     31 H11         -4.7020     1.3560     1.5090 ho         1 T4E       0.469000
     32 O1          -4.7130     0.5570     0.9410 oh         1 T4E      -0.511100
@<TRIPOS>BOND
     1     1     2 ar  
     2     1     6 ar  
     3     2     3 ar  
     4     3     4 1   
     5     3    10 1   
     6     4     5 2   
     7     4    16 1   
     8     5     6 ar  
     9     6    19 1   
    10     7     8 ar  
    11     7    12 ar  
    12     7    32 1   
    13     8     9 ar  
    14     8    21 1   
    15     9    10 ar  
    16     9    22 1   
    17    10    11 ar  
    18    11    12 ar  
    19    11    23 1   
    20    12    20 1   
    21    13    14 ar  
    22    13    18 ar  
    23    13    24 1   
    24    14    15 ar  
    25    14    25 1   
    26    15    16 1   
    27    15    26 1   
    28    16    17 2   
    29    17    18 ar  
    30    17    27 1   
    31    18    28 1   
    32    19    29 1   
    33    19    30 1   
    34    31    32 1   
@<TRIPOS>SUBSTRUCTURE
     1 T4E         1 TEMP              0 ****  ****    0 ROOT
