@<TRIPOS>MOLECULE
T4E
   32    34     1     0     0
SMALL
abcg2


@<TRIPOS>ATOM
      1 N2           2.1540    -2.8260     0.1450 nb         1 T4E      -0.160000
      2 N1           0.9650    -2.3010     0.2130 nb         1 T4E      -0.247000
      3 C6           0.7760    -0.9930     0.1610 cp         1 T4E       0.238500
      4 C5           1.8930    -0.1490    -0.0380 cq         1 T4E       0.210500
      5 N4           3.1020    -0.6650    -0.0520 nb         1 T4E      -0.218000
      6 C3           3.2010    -1.9930     0.0690 ca         1 T4E       0.328900
      7 C10         -3.2800     0.2880     0.6770 ca         1 T4E       0.155100
      8 C11         -2.2440     0.9340     1.3470 ca         1 T4E      -0.206000
      9 C12         -0.9320     0.5310     1.1750 ca         1 T4E      -0.046000
     10 C7          -0.6120    -0.5290     0.3290 cp         1 T4E      -0.160500
     11 C8          -1.6470    -1.1870    -0.3300 ca         1 T4E      -0.035000
     12 C9          -2.9570    -0.7800    -0.1600 ca         1 T4E       0.071000
     13 C16          1.6980     4.0500    -0.7310 ca         1 T4E      -0.091000
     14 C17          2.6580     3.5230     0.1230 ca         1 T4E      -0.119500
     15 C18          2.7160     2.1560     0.3450 ca         1 T4E      -0.070500
     16 C13          1.7970     1.3050    -0.2660 cq         1 T4E      -0.168500
     17 C14          0.8370     1.8390    -1.1250 ca         1 T4E      -0.070500
     18 C15          0.7940     3.2030    -1.3610 ca         1 T4E      -0.119500
     19 N3           4.4230    -2.5360     0.0730 nv         1 T4E      -1.065900
     20 CL1         -4.2310    -1.5950    -1.0000 cl         1 T4E      -0.180000
     21 H1          -2.4670     1.7590     2.0120 ha         1 T4E       0.118000
     22 H2          -0.1550     1.0490     1.7220 ha         1 T4E       0.122000
     23 H3          -1.4300    -2.0170    -0.9900 ha         1 T4E       0.144000
     24 H4           1.6570     5.1160    -0.9100 ha         1 T4E       0.115000
     25 H5           3.3660     4.1780     0.6140 ha         1 T4E       0.117500
     26 H6           3.4690     1.7460     1.0060 ha         1 T4E       0.125000
     27 H7           0.1320     1.1880    -1.6260 ha         1 T4E       0.125000
     28 H8           0.0530     3.6070    -2.0390 ha         1 T4E       0.117500
     29 H9           5.2360    -1.9470     0.1050 hn         1 T4E       0.507500
     30 H10          4.5370    -3.5200     0.2440 hn         1 T4E       0.507500
     31 H11         -4.6570     1.3900     1.3910 ho         1 T4E       0.469000
     32 O1          -4.5670     0.6360     0.7960 oh         1 T4E      -0.511100
@<TRIPOS>BOND
     1     1     2 ar  
     2     1     6 ar  
     3     2     3 ar  
     4     3     4 1   
     5     3    10 1   
     6     4     5 2   
     7     4    16 1   
     8     5     6 ar  
     9     6    19 1   
    10     7     8 ar  
    11     7    12 ar  
    12     7    32 1   
    13     8     9 ar  
    14     8    21 1   
    15     9    10 ar  
    16     9    22 1   
    17    10    11 ar  
    18    11    12 ar  
    19    11    23 1   
    20    12    20 1   
    21    13    14 ar  
    22    13    18 ar  
    23    13    24 1   
    24    14    15 ar  
    25    14    25 1   
    26    15    16 1   
    27    15    26 1   
    28    16    17 2   
    29    17    18 ar  
    30    17    27 1   
    31    18    28 1   
    32    19    29 1   
    33    19    30 1   
    34    31    32 1   
@<TRIPOS>SUBSTRUCTURE
     1 T4E         1 TEMP              0 ****  ****    0 ROOT
