@<TRIPOS>MOLECULE
T4F
   80    82     1     0     0
SMALL
No Charge or Current Charge


@<TRIPOS>ATOM
      1 C1           1.2820    -2.8420    -1.0250 c6         1 T4F      -0.054700
      2 C2           0.9920    -2.5800     0.4840 c6         1 T4F      -0.074900
      3 C3           1.9570    -3.3750     1.3980 c6         1 T4F      -0.071900
      4 C7           0.3060    -2.0710    -1.9760 c3         1 T4F      -0.097400
      5 C8           0.2550    -0.5240    -1.8130 c3         1 T4F       0.138500
      6 C9           1.6640     0.1610    -1.9060 c          1 T4F       0.610100
      7 C10          4.6610     2.5620     0.8240 c5         1 T4F      -0.054000
      8 C11          2.6240     1.4240     1.5640 c5         1 T4F      -0.069400
      9 C12          3.7260     1.3560     0.4290 c5         1 T4F      -0.066000
     10 C13          5.8150     2.8860    -0.1870 c3         1 T4F      -0.072100
     11 C14         -3.0400     1.4900    -0.5930 c3         1 T4F       0.077500
     12 C15         -1.9710     2.6450    -0.5950 c          1 T4F       0.713000
     13 C16          2.4260     2.9580     1.7800 c5         1 T4F      -0.079400
     14 C21          5.3840     2.4430     2.2090 c3         1 T4F      -0.072100
     15 C22          3.1020     1.8990    -0.9270 c5         1 T4F       0.116700
     16 C24          3.4750     3.5860     0.8000 c5         1 T4F      -0.059700
     17 C23          2.8480     3.4120    -0.6290 c5         1 T4F      -0.098400
     18 N1           1.7780     1.2960    -1.1270 ns         1 T4F      -0.487900
     19 O1           2.5850    -0.2670    -2.5960 o          1 T4F      -0.651100
     20 C4           1.9100    -4.8900     1.0860 c6         1 T4F      -0.073400
     21 C5           2.2080    -5.1570    -0.4080 c6         1 T4F      -0.071900
     22 C6           1.2380    -4.3680    -1.3210 c6         1 T4F      -0.074900
     23 N2          -0.7180     0.1210    -2.7690 n7         1 T4F      -0.895300
     24 S1          -2.3630    -0.0320    -2.7490 s6         1 T4F       1.261200
     25 O2          -2.9180     1.1260    -3.4410 o          1 T4F      -0.586000
     26 O3          -2.7280    -1.4110    -3.0510 o          1 T4F      -0.586000
     27 N3          -2.4600     0.2260    -1.1390 n7         1 T4F      -0.862300
     28 C17         -3.5450     1.2440     0.8510 c3         1 T4F      -0.053400
     29 C18         -4.7370     0.2600     0.9460 c3         1 T4F      -0.078400
     30 N4          -6.9130    -1.0690     3.8650 n8         1 T4F      -0.999200
     31 H1           2.2980    -2.4920    -1.2480 hc         1 T4F       0.057700
     32 H2           1.0970    -1.5130     0.7170 hc         1 T4F       0.043200
     33 H3          -0.0470    -2.8520     0.7180 hc         1 T4F       0.043200
     34 H4           2.9830    -3.0030     1.2660 hc         1 T4F       0.034200
     35 H5           1.6970    -3.2040     2.4510 hc         1 T4F       0.034200
     36 H7           0.5650    -2.2980    -3.0180 hc         1 T4F       0.056200
     37 H8          -0.7030    -2.4710    -1.8220 hc         1 T4F       0.056200
     38 H9          -0.0450    -0.3400    -0.7740 h1         1 T4F       0.088700
     39 H10          1.6870     0.9110     1.3240 hc         1 T4F       0.040200
     40 H11          2.9710     0.9430     2.4850 hc         1 T4F       0.040200
     41 H12          5.4840     3.0350    -1.2190 hc         1 T4F       0.026367
     42 H13          6.3390     3.8050     0.1030 hc         1 T4F       0.026367
     43 H14          6.5590     2.0810    -0.2070 hc         1 T4F       0.026367
     44 H15         -3.8990     1.8250    -1.1910 h1         1 T4F       0.057700
     45 H16          1.4000     3.2800     1.5700 hc         1 T4F       0.054200
     46 H17          2.6260     3.2410     2.8200 hc         1 T4F       0.054200
     47 H20         -7.2710    -0.5430     1.8620 h1         1 T4F       0.026700
     48 H21         -6.1330    -1.8960     2.0970 h1         1 T4F       0.026700
     49 H22          6.1370     1.6450     2.1940 hc         1 T4F       0.026367
     50 H23          5.9060     3.3750     2.4570 hc         1 T4F       0.026367
     51 H24          4.7180     2.2310     3.0510 hc         1 T4F       0.026367
     52 H25          3.7730     1.7650    -1.7870 h1         1 T4F       0.066700
     53 H26          3.7450     4.6200     1.0430 hc         1 T4F       0.054700
     54 H30          3.3620     4.0400    -1.3640 hc         1 T4F       0.073200
     55 H31          1.7930     3.7100    -0.6700 hc         1 T4F       0.073200
     56 H32          0.9220     1.6590    -0.7060 hn         1 T4F       0.371500
     57 H33          2.6370    -5.4230     1.7140 hc         1 T4F       0.030200
     58 H34          0.9200    -5.2910     1.3450 hc         1 T4F       0.030200
     59 H35          3.2450    -4.8740    -0.6360 hc         1 T4F       0.034200
     60 H36          2.1250    -6.2330    -0.6170 hc         1 T4F       0.034200
     61 H37          0.2160    -4.7470    -1.1830 hc         1 T4F       0.043200
     62 H38          1.4980    -4.5540    -2.3730 hc         1 T4F       0.043200
     63 H39         -0.5050    -0.1470    -3.7300 hn         1 T4F       0.482000
     64 H40         -1.4610     0.4130    -1.0970 hn         1 T4F       0.504000
     65 H41         -2.7150     0.8750     1.4680 hc         1 T4F       0.047200
     66 H42         -3.8510     2.2060     1.2810 hc         1 T4F       0.047200
     67 H43         -4.4380    -0.7160     0.5450 hc         1 T4F       0.043200
     68 H44         -5.5560     0.6270     0.3150 hc         1 T4F       0.043200
     69 H45         -7.2720    -0.1660     4.1990 hn         1 T4F       0.382000
     70 H46         -7.7420    -1.6760     3.8680 hn         1 T4F       0.382000
     71 O5          -2.3290     3.7890    -0.8420 o          1 T4F      -0.727500
     72 C19         -5.2530     0.0710     2.3900 c3         1 T4F      -0.075400
     73 O4          -0.8000     2.3190    -0.4210 o          1 T4F      -0.727500
     74 C25          4.4030    -0.0310     0.3060 c3         1 T4F      -0.066100
     75 C20         -6.4390    -0.9110     2.4780 c3         1 T4F       0.144800
     76 H18         -5.5580     1.0450     2.7920 hc         1 T4F       0.038700
     77 H19         -4.4320    -0.2950     3.0190 hc         1 T4F       0.038700
     78 H27          4.8910    -0.3220     1.2440 hc         1 T4F       0.030033
     79 H28          3.6690    -0.8070     0.0640 hc         1 T4F       0.030033
     80 H29          5.1640    -0.0340    -0.4830 hc         1 T4F       0.030033
@<TRIPOS>BOND
     1     1     2 1   
     2     1     4 1   
     3     1    22 1   
     4     1    31 1   
     5     2     3 1   
     6     2    32 1   
     7     2    33 1   
     8     3    20 1   
     9     3    34 1   
    10     3    35 1   
    11     4     5 1   
    12     4    36 1   
    13     4    37 1   
    14     5     6 1   
    15     5    23 1   
    16     5    38 1   
    17     6    18 1   
    18     6    19 2   
    19     7     9 1   
    20     7    10 1   
    21     7    14 1   
    22     7    16 1   
    23     8     9 1   
    24     8    13 1   
    25     8    39 1   
    26     8    40 1   
    27     9    15 1   
    28     9    74 1   
    29    10    41 1   
    30    10    42 1   
    31    10    43 1   
    32    11    12 1   
    33    11    27 1   
    34    11    28 1   
    35    11    44 1   
    36    12    71 1   
    37    12    73 1   
    38    13    16 1   
    39    13    45 1   
    40    13    46 1   
    41    14    49 1   
    42    14    50 1   
    43    14    51 1   
    44    15    17 1   
    45    15    18 1   
    46    15    52 1   
    47    16    17 1   
    48    16    53 1   
    49    17    54 1   
    50    17    55 1   
    51    18    56 1   
    52    20    21 1   
    53    20    57 1   
    54    20    58 1   
    55    21    22 1   
    56    21    59 1   
    57    21    60 1   
    58    22    61 1   
    59    22    62 1   
    60    23    24 1   
    61    23    63 1   
    62    24    25 2   
    63    24    26 2   
    64    24    27 1   
    65    27    64 1   
    66    28    29 1   
    67    28    65 1   
    68    28    66 1   
    69    29    67 1   
    70    29    68 1   
    71    29    72 1   
    72    30    69 1   
    73    30    70 1   
    74    30    75 1   
    75    47    75 1   
    76    48    75 1   
    77    72    75 1   
    78    72    76 1   
    79    72    77 1   
    80    74    78 1   
    81    74    79 1   
    82    74    80 1   
@<TRIPOS>SUBSTRUCTURE
     1 T4F         1 TEMP              0 ****  ****    0 ROOT
