@<TRIPOS>MOLECULE
T4F
   80    82     1     0     0
SMALL
bcc


@<TRIPOS>ATOM
      1 C1           1.9290    -3.0370    -0.9440 c6         1 T4F      -0.054700
      2 C2           1.9910    -3.0760     0.5830 c6         1 T4F      -0.074900
      3 C3           3.3650    -3.5050     1.0870 c6         1 T4F      -0.071900
      4 C7           0.5480    -2.6500    -1.4700 c3         1 T4F      -0.097400
      5 C8           0.0510    -1.2850    -1.0000 c3         1 T4F       0.138500
      6 C9           1.0340    -0.1880    -1.4190 c          1 T4F       0.677100
      7 C10          4.3420     2.7890     0.3290 c5         1 T4F      -0.054000
      8 C11          3.4120     1.0030     1.6190 c5         1 T4F      -0.069400
      9 C12          3.7530     1.3580     0.1650 c5         1 T4F      -0.066000
     10 C13          4.6640     3.5000    -0.9860 c3         1 T4F      -0.072100
     11 C14         -2.7140     0.8690     0.6160 c3         1 T4F       0.077500
     12 C15         -1.4360     1.4460     1.2780 c          1 T4F       0.923600
     13 C16          2.9010     2.3380     2.2110 c5         1 T4F      -0.079400
     14 C21          5.6070     2.8550     1.1860 c3         1 T4F      -0.072100
     15 C22          2.4170     1.6650    -0.5690 c5         1 T4F       0.116700
     16 C24          3.0830     3.3250     1.0450 c5         1 T4F      -0.059700
     17 C23          1.9740     3.0230     0.0350 c5         1 T4F      -0.098400
     18 N1           1.4300     0.6180    -0.4290 ns         1 T4F      -0.554900
     19 O1           1.4120    -0.1120    -2.5820 o          1 T4F      -0.651100
     20 C4           3.7890    -4.8460     0.4970 c6         1 T4F      -0.073400
     21 C5           3.7290    -4.8190    -1.0260 c6         1 T4F      -0.071900
     22 C6           2.3530    -4.3890    -1.5210 c6         1 T4F      -0.074900
     23 N2          -1.2560    -0.9190    -1.5460 n7         1 T4F      -0.840100
     24 S1          -2.6260    -1.4340    -0.7640 s6         1 T4F       1.402800
     25 O2          -3.7120    -1.0200    -1.6340 o          1 T4F      -0.656800
     26 O3          -2.5380    -2.8310    -0.3640 o          1 T4F      -0.656800
     27 N3          -2.6910    -0.5910     0.6260 n7         1 T4F      -0.807100
     28 C17         -3.9690     1.3900     1.3180 c3         1 T4F      -0.053400
     29 C18         -5.2780     0.8790     0.7350 c3         1 T4F      -0.078400
     30 N4          -8.9420     1.5130     1.6040 n8         1 T4F      -0.888800
     31 H1           2.6570    -2.2930    -1.2940 hc         1 T4F       0.057700
     32 H2           1.7460    -2.0970     1.0050 hc         1 T4F       0.043200
     33 H3           1.2270    -3.7700     0.9540 hc         1 T4F       0.043200
     34 H4           4.1030    -2.7400     0.8180 hc         1 T4F       0.034200
     35 H5           3.3620    -3.5560     2.1780 hc         1 T4F       0.034200
     36 H7           0.5660    -2.6590    -2.5640 hc         1 T4F       0.056200
     37 H8          -0.1780    -3.4050    -1.1610 hc         1 T4F       0.056200
     38 H9          -0.0450    -1.2770     0.0870 h1         1 T4F       0.088700
     39 H10          2.6840     0.1930     1.6910 hc         1 T4F       0.040200
     40 H11          4.3030     0.6450     2.1390 hc         1 T4F       0.040200
     41 H12          3.8640     3.4730    -1.7240 hc         1 T4F       0.026367
     42 H13          4.8930     4.5510    -0.7980 hc         1 T4F       0.026367
     43 H14          5.5480     3.0610    -1.4550 hc         1 T4F       0.026367
     44 H15         -2.7280     1.2170    -0.4210 h1         1 T4F       0.057700
     45 H16          1.8550     2.2770     2.5190 hc         1 T4F       0.054200
     46 H17          3.4750     2.6350     3.0910 hc         1 T4F       0.054200
     47 H20         -7.8350     1.0890    -0.1860 h1         1 T4F       0.026700
     48 H21         -7.8350    -0.1540     1.0500 h1         1 T4F       0.026700
     49 H22          6.4240     2.3030     0.7170 hc         1 T4F       0.026367
     50 H23          5.9340     3.8930     1.2860 hc         1 T4F       0.026367
     51 H24          5.4820     2.4620     2.1930 hc         1 T4F       0.026367
     52 H25          2.6110     1.7660    -1.6360 h1         1 T4F       0.066700
     53 H26          3.1310     4.3730     1.3510 hc         1 T4F       0.054700
     54 H30          1.9000     3.7880    -0.7390 hc         1 T4F       0.073200
     55 H31          0.9940     2.9640     0.5110 hc         1 T4F       0.073200
     56 H32          0.9120     0.5700     0.4470 hn         1 T4F       0.371500
     57 H33          4.7960    -5.1050     0.8320 hc         1 T4F       0.030200
     58 H34          3.1250    -5.6330     0.8720 hc         1 T4F       0.030200
     59 H35          4.4840    -4.1210    -1.4070 hc         1 T4F       0.034200
     60 H36          3.9840    -5.8000    -1.4340 hc         1 T4F       0.034200
     61 H37          1.6090    -5.1450    -1.2400 hc         1 T4F       0.043200
     62 H38          2.3450    -4.3400    -2.6140 hc         1 T4F       0.043200
     63 H39         -1.3360    -1.0400    -2.5510 hn         1 T4F       0.426800
     64 H40         -2.0520    -0.9530     1.3310 hn         1 T4F       0.448800
     65 H41         -3.9200     1.1260     2.3810 hc         1 T4F       0.047200
     66 H42         -3.9490     2.4810     1.2720 hc         1 T4F       0.047200
     67 H43         -5.3110    -0.2110     0.8030 hc         1 T4F       0.043200
     68 H44         -5.3260     1.1170    -0.3330 hc         1 T4F       0.043200
     69 H45         -8.9910     2.5020     1.3910 hn         1 T4F       0.326800
     70 H46         -9.8010     1.1160     1.2450 hn         1 T4F       0.326800
     71 O5          -1.3700     2.6820     1.3230 o          1 T4F      -0.832800
     72 C19         -6.4910     1.4680     1.4420 c3         1 T4F      -0.075400
     73 O4          -0.5940     0.6240     1.7130 o          1 T4F      -0.832800
     74 C25          4.6020     0.3290    -0.5460 c3         1 T4F      -0.066100
     75 C20         -7.8060     0.9300     0.9020 c3         1 T4F       0.144800
     76 H18         -6.4780     2.5600     1.3410 hc         1 T4F       0.038700
     77 H19         -6.4340     1.2600     2.5160 hc         1 T4F       0.038700
     78 H27          5.5280     0.1270    -0.0030 hc         1 T4F       0.030033
     79 H28          4.0710    -0.6210    -0.6360 hc         1 T4F       0.030033
     80 H29          4.8650     0.6520    -1.5550 hc         1 T4F       0.030033
@<TRIPOS>BOND
     1     1     2 1   
     2     1     4 1   
     3     1    22 1   
     4     1    31 1   
     5     2     3 1   
     6     2    32 1   
     7     2    33 1   
     8     3    20 1   
     9     3    34 1   
    10     3    35 1   
    11     4     5 1   
    12     4    36 1   
    13     4    37 1   
    14     5     6 1   
    15     5    23 1   
    16     5    38 1   
    17     6    18 1   
    18     6    19 2   
    19     7     9 1   
    20     7    10 1   
    21     7    14 1   
    22     7    16 1   
    23     8     9 1   
    24     8    13 1   
    25     8    39 1   
    26     8    40 1   
    27     9    15 1   
    28     9    74 1   
    29    10    41 1   
    30    10    42 1   
    31    10    43 1   
    32    11    12 1   
    33    11    27 1   
    34    11    28 1   
    35    11    44 1   
    36    12    71 1   
    37    12    73 1   
    38    13    16 1   
    39    13    45 1   
    40    13    46 1   
    41    14    49 1   
    42    14    50 1   
    43    14    51 1   
    44    15    17 1   
    45    15    18 1   
    46    15    52 1   
    47    16    17 1   
    48    16    53 1   
    49    17    54 1   
    50    17    55 1   
    51    18    56 1   
    52    20    21 1   
    53    20    57 1   
    54    20    58 1   
    55    21    22 1   
    56    21    59 1   
    57    21    60 1   
    58    22    61 1   
    59    22    62 1   
    60    23    24 1   
    61    23    63 1   
    62    24    25 2   
    63    24    26 2   
    64    24    27 1   
    65    27    64 1   
    66    28    29 1   
    67    28    65 1   
    68    28    66 1   
    69    29    67 1   
    70    29    68 1   
    71    29    72 1   
    72    30    69 1   
    73    30    70 1   
    74    30    75 1   
    75    47    75 1   
    76    48    75 1   
    77    72    75 1   
    78    72    76 1   
    79    72    77 1   
    80    74    78 1   
    81    74    79 1   
    82    74    80 1   
@<TRIPOS>SUBSTRUCTURE
     1 T4F         1 TEMP              0 ****  ****    0 ROOT
