@<TRIPOS>MOLECULE
T4G
   36    38     1     0     0
SMALL
bcc


@<TRIPOS>ATOM
      1 N2           2.5380    -2.3230     0.2570 nb         1 T4G      -0.427000
      2 N1           1.2480    -2.1780     0.2340 nb         1 T4G      -0.240000
      3 C6           0.6840    -0.9870     0.1150 cp         1 T4G       0.220500
      4 C5           1.5060     0.1460    -0.0720 cq         1 T4G       0.480500
      5 N4           2.8120     0.0170    -0.0040 nb         1 T4G      -0.747000
      6 C3           3.2930    -1.2140     0.1960 ca         1 T4G       0.860900
      7 N5          -3.5550    -0.9790     0.4330 nb         1 T4G      -0.681000
      8 C10         -2.8320    -0.0840     1.1050 ca         1 T4G       0.424100
      9 C11         -1.4470    -0.0390     1.0180 ca         1 T4G      -0.230300
     10 C7          -0.7870    -0.9620     0.2120 cp         1 T4G      -0.082500
     11 C8          -1.5530    -1.8970    -0.4700 ca         1 T4G      -0.230300
     12 C9          -2.9380    -1.8700    -0.3370 ca         1 T4G       0.424100
     13 C17          0.0850     4.0560    -0.9850 ca         1 T4G      -0.108000
     14 C18          1.1170     3.8800    -0.0720 ca         1 T4G      -0.137500
     15 C19          1.5770     2.6050     0.2200 ca         1 T4G      -0.087000
     16 C14          0.9890     1.4920    -0.3800 cq         1 T4G      -0.169500
     17 C15         -0.0440     1.6750    -1.2980 ca         1 T4G      -0.087000
     18 C16         -0.4880     2.9510    -1.6030 ca         1 T4G      -0.137500
     19 N3           4.6120    -1.3640     0.3180 nv         1 T4G      -0.957500
     20 C13         -3.7950    -2.8680    -1.0550 c3         1 T4G      -0.143900
     21 H1          -0.8960     0.7030     1.5800 ha         1 T4G       0.148000
     22 H2          -1.0830    -2.6300    -1.1130 ha         1 T4G       0.148000
     23 H3          -0.2710     5.0510    -1.2150 ha         1 T4G       0.133000
     24 H4           1.5670     4.7370     0.4110 ha         1 T4G       0.136000
     25 H5           2.3840     2.4700     0.9280 ha         1 T4G       0.143000
     26 H6          -0.4930     0.8230    -1.7930 ha         1 T4G       0.143000
     27 H7          -1.2830     3.0820    -2.3250 ha         1 T4G       0.136000
     28 H8           5.2250    -0.5700     0.2570 hn         1 T4G       0.455300
     29 H9           5.0110    -2.2730     0.4710 hn         1 T4G       0.455300
     30 H10         -3.9700    -3.7450    -0.4280 hc         1 T4G       0.050533
     31 H11         -4.7660    -2.4410    -1.3000 hc         1 T4G       0.050533
     32 H12         -3.3240    -3.2140    -1.9740 hc         1 T4G       0.050533
     33 H13         -3.8820     0.3800     2.9120 hc         1 T4G       0.050533
     34 H14         -2.9800     1.7380     2.2490 hc         1 T4G       0.050533
     35 H15         -4.4920     1.2140     1.4920 hc         1 T4G       0.050533
     36 C12         -3.5820     0.8700     1.9830 c3         1 T4G      -0.143900
@<TRIPOS>BOND
     1     1     2 ar  
     2     1     6 ar  
     3     2     3 ar  
     4     3     4 1   
     5     3    10 1   
     6     4     5 2   
     7     4    16 1   
     8     5     6 ar  
     9     6    19 1   
    10     7     8 ar  
    11     7    12 ar  
    12     8     9 ar  
    13     8    36 1   
    14     9    10 ar  
    15     9    21 1   
    16    10    11 ar  
    17    11    12 ar  
    18    11    22 1   
    19    12    20 1   
    20    13    14 ar  
    21    13    18 ar  
    22    13    23 1   
    23    14    15 ar  
    24    14    24 1   
    25    15    16 1   
    26    15    25 1   
    27    16    17 2   
    28    17    18 ar  
    29    17    26 1   
    30    18    27 1   
    31    19    28 1   
    32    19    29 1   
    33    20    30 1   
    34    20    31 1   
    35    20    32 1   
    36    33    36 1   
    37    34    36 1   
    38    35    36 1   
@<TRIPOS>SUBSTRUCTURE
     1 T4G         1 TEMP              0 ****  ****    0 ROOT
