@<TRIPOS>MOLECULE
T4G
   36    38     1     0     0
SMALL
No Charge or Current Charge


@<TRIPOS>ATOM
      1 N2           2.6000    -2.3110    -0.1820 nb         1 T4G      -0.164000
      2 N1           1.2600    -2.2170    -0.2300 nb         1 T4G      -0.240000
      3 C6           0.6530    -1.0190    -0.0470 cp         1 T4G       0.220500
      4 C5           1.5080     0.2000     0.0830 cq         1 T4G       0.217500
      5 N4           2.8380     0.0350     0.2420 nb         1 T4G      -0.221000
      6 C3           3.3190    -1.2040     0.0730 ca         1 T4G       0.334900
      7 N5          -3.6790    -1.1130     0.4450 nb         1 T4G      -0.681000
      8 C10         -2.9360    -0.1190     0.9780 ca         1 T4G       0.358800
      9 C11         -1.5380    -0.0570     0.8440 ca         1 T4G      -0.147000
     10 C7          -0.8420    -1.0540     0.1160 cp         1 T4G      -0.082500
     11 C8          -1.6430    -2.0900    -0.4280 ca         1 T4G      -0.147000
     12 C9          -3.0380    -2.0800    -0.2460 ca         1 T4G       0.358800
     13 C17          0.2570     4.2450    -0.8860 ca         1 T4G      -0.090000
     14 C18          1.3040     4.0300     0.0220 ca         1 T4G      -0.119500
     15 C19          1.7140     2.7220     0.3350 ca         1 T4G      -0.069000
     16 C14          1.0730     1.6080    -0.2540 cq         1 T4G      -0.169500
     17 C15          0.0260     1.8380    -1.1750 ca         1 T4G      -0.069000
     18 C16         -0.3790     3.1470    -1.4850 ca         1 T4G      -0.119500
     19 N3           4.6660    -1.3520     0.1760 nv         1 T4G      -1.067900
     20 C13         -3.9090    -3.1810    -0.8220 c3         1 T4G      -0.143900
     21 H1          -1.0000     0.7600     1.3160 ha         1 T4G       0.130000
     22 H2          -1.1920    -2.8980    -0.9970 ha         1 T4G       0.130000
     23 H3          -0.0590     5.2580    -1.1270 ha         1 T4G       0.115000
     24 H4           1.8010     4.8790     0.4860 ha         1 T4G       0.118000
     25 H5           2.5250     2.5880     1.0480 ha         1 T4G       0.125000
     26 H6          -0.4770     1.0090    -1.6690 ha         1 T4G       0.125000
     27 H7          -1.1880     3.3110    -2.1940 ha         1 T4G       0.118000
     28 H8           5.2170    -0.5910     0.5700 hn         1 T4G       0.510500
     29 H9           5.0570    -2.2890     0.2630 hn         1 T4G       0.510500
     30 H10         -4.0350    -3.9940    -0.0980 hc         1 T4G       0.050533
     31 H11         -4.9060    -2.8080    -1.0890 hc         1 T4G       0.050533
     32 H12         -3.4630    -3.6040    -1.7300 hc         1 T4G       0.050533
     33 H13         -3.7300     0.6890     2.8200 hc         1 T4G       0.050533
     34 H14         -3.2040     1.9210     1.6600 hc         1 T4G       0.050533
     35 H15         -4.7210     1.0520     1.3950 hc         1 T4G       0.050533
     36 C12         -3.6910     0.9430     1.7550 c3         1 T4G      -0.143900
@<TRIPOS>BOND
     1     1     2 ar  
     2     1     6 ar  
     3     2     3 ar  
     4     3     4 1   
     5     3    10 1   
     6     4     5 2   
     7     4    16 1   
     8     5     6 ar  
     9     6    19 1   
    10     7     8 ar  
    11     7    12 ar  
    12     8     9 ar  
    13     8    36 1   
    14     9    10 ar  
    15     9    21 1   
    16    10    11 ar  
    17    11    12 ar  
    18    11    22 1   
    19    12    20 1   
    20    13    14 ar  
    21    13    18 ar  
    22    13    23 1   
    23    14    15 ar  
    24    14    24 1   
    25    15    16 1   
    26    15    25 1   
    27    16    17 2   
    28    17    18 ar  
    29    17    26 1   
    30    18    27 1   
    31    19    28 1   
    32    19    29 1   
    33    20    30 1   
    34    20    31 1   
    35    20    32 1   
    36    33    36 1   
    37    34    36 1   
    38    35    36 1   
@<TRIPOS>SUBSTRUCTURE
     1 T4G         1 TEMP              0 ****  ****    0 ROOT
