@<TRIPOS>MOLECULE
T4H
   30    31     1     0     0
SMALL
abcg2


@<TRIPOS>ATOM
      1 N1         -37.1730     2.3170     0.4390 n          1 T4H      -0.389400
      2 C4         -37.7360     8.1840     0.8010 ca         1 T4H      -0.144600
      3 C5         -36.8310     8.7890     1.6690 ca         1 T4H      -0.083000
      4 C6         -38.0830     6.7310     0.9020 c          1 T4H       0.609700
      5 C7         -37.3060     4.5070     1.5590 c3         1 T4H       0.085000
      6 C8         -37.0370     3.7530     0.2580 c3         1 T4H       0.077000
      7 C10        -38.2610     0.1920     0.5200 c5         1 T4H      -0.065400
      8 O2         -34.9950     1.9700     1.0610 o          1 T4H      -0.468000
      9 C11        -36.0990     1.5500     0.8430 c          1 T4H       0.592600
     10 S          -36.5550    -0.1440     0.9990 ss         1 T4H      -0.259600
     11 C9         -38.3750     1.6740     0.2630 c          1 T4H       0.570000
     12 O1         -39.3950     2.2270    -0.0600 o          1 T4H      -0.468000
     13 N          -37.1230     5.9280     1.3940 ns         1 T4H      -0.502900
     14 O          -39.1800     6.3220     0.5530 o          1 T4H      -0.584100
     15 C          -36.5690    10.1430     1.5380 ca         1 T4H       0.109000
     16 CL         -35.4540    10.8940     2.6310 cl         1 T4H      -0.197000
     17 C3         -38.3750     8.9470    -0.1720 ca         1 T4H      -0.057000
     18 C2         -38.0900    10.2970    -0.2960 ca         1 T4H      -0.110000
     19 C1         -37.1840    10.9080     0.5600 ca         1 T4H      -0.082000
     20 H1         -36.3500     8.2290     2.4600 ha         1 T4H       0.129000
     21 H2         -38.3200     4.3080     1.9050 h1         1 T4H       0.067200
     22 H3         -36.6210     4.1700     2.3370 h1         1 T4H       0.067200
     23 H4         -36.0300     3.9590    -0.1020 h1         1 T4H       0.078700
     24 H5         -37.7370     4.0630    -0.5160 h1         1 T4H       0.078700
     25 H6         -38.9490    -0.0980     1.3130 h1         1 T4H       0.114700
     26 H7         -36.1950     6.2910     1.5320 hn         1 T4H       0.321500
     27 H8         -39.0880     8.4820    -0.8400 ha         1 T4H       0.140000
     28 H9         -38.5770    10.8850    -1.0620 ha         1 T4H       0.125000
     29 H10        -36.9640    11.9630     0.4670 ha         1 T4H       0.132000
     30 H11        -38.5240    -0.3570    -0.3850 h1         1 T4H       0.114700
@<TRIPOS>BOND
     1     1     6 1   
     2     1     9 1   
     3     1    11 1   
     4     2     3 ar  
     5     2     4 1   
     6     2    17 ar  
     7     3    15 ar  
     8     3    20 1   
     9     4    13 1   
    10     4    14 2   
    11     5     6 1   
    12     5    13 1   
    13     5    21 1   
    14     5    22 1   
    15     6    23 1   
    16     6    24 1   
    17     7    10 1   
    18     7    11 1   
    19     7    25 1   
    20     7    30 1   
    21     8     9 2   
    22     9    10 1   
    23    11    12 2   
    24    13    26 1   
    25    15    16 1   
    26    15    19 ar  
    27    17    18 ar  
    28    17    27 1   
    29    18    19 ar  
    30    18    28 1   
    31    19    29 1   
@<TRIPOS>SUBSTRUCTURE
     1 T4H         1 TEMP              0 ****  ****    0 ROOT
