@<TRIPOS>MOLECULE
T4H
   30    31     1     0     0
SMALL
No Charge or Current Charge


@<TRIPOS>ATOM
      1 N1         -37.1630     2.2320     0.5490 n          1 T4H      -0.389400
      2 C4         -37.7460     8.2260     0.6910 ca         1 T4H      -0.144600
      3 C5         -36.6440     8.7580     1.4080 ca         1 T4H      -0.083000
      4 C6         -38.1000     6.7530     0.7250 c          1 T4H       0.609700
      5 C7         -37.4720     4.4850     1.6430 c3         1 T4H       0.085000
      6 C8         -37.0590     3.7050     0.3770 c3         1 T4H       0.077000
      7 C10        -38.1750     0.0680     0.4400 c5         1 T4H      -0.065400
      8 O2         -34.9810     2.0040     1.3070 o          1 T4H      -0.468000
      9 C11        -36.0540     1.5150     0.9900 c          1 T4H       0.592600
     10 S          -36.4410    -0.2460     1.0430 ss         1 T4H      -0.259600
     11 C9         -38.3450     1.5760     0.1950 c          1 T4H       0.570000
     12 O1         -39.3450     2.1370    -0.2290 o          1 T4H      -0.468000
     13 N          -37.3000     5.9370     1.4990 ns         1 T4H      -0.502900
     14 O          -39.0490     6.2980     0.1020 o          1 T4H      -0.584100
     15 C          -36.3490    10.1310     1.3480 ca         1 T4H       0.109000
     16 Cl         -34.9780    10.7710     2.2440 cl         1 T4H      -0.197000
     17 C3         -38.5360     9.1100    -0.0810 ca         1 T4H      -0.057000
     18 C2         -38.2370    10.4830    -0.1360 ca         1 T4H      -0.110000
     19 C1         -37.1430    10.9950     0.5790 ca         1 T4H      -0.082000
     20 H1         -36.0030     8.1260     2.0150 ha         1 T4H       0.129000
     21 H2         -38.5230     4.2700     1.8790 h1         1 T4H       0.067200
     22 H3         -36.8610     4.1450     2.4900 h1         1 T4H       0.067200
     23 H4         -36.0270     3.9720     0.1150 h1         1 T4H       0.078700
     24 H5         -37.6880     4.0230    -0.4650 h1         1 T4H       0.078700
     25 H6         -38.9070    -0.2480     1.1920 h1         1 T4H       0.114700
     26 H7         -36.5380     6.3820     1.9940 hn         1 T4H       0.321500
     27 H8         -39.3900     8.7350    -0.6430 ha         1 T4H       0.140000
     28 H9         -38.8550    11.1490    -0.7350 ha         1 T4H       0.125000
     29 H10        -36.9100    12.0560     0.5370 ha         1 T4H       0.132000
     30 H11        -38.3590    -0.4640    -0.5010 h1         1 T4H       0.114700
@<TRIPOS>BOND
     1     1     6 1   
     2     1     9 1   
     3     1    11 1   
     4     2     3 ar  
     5     2     4 1   
     6     2    17 ar  
     7     3    15 ar  
     8     3    20 1   
     9     4    13 1   
    10     4    14 2   
    11     5     6 1   
    12     5    13 1   
    13     5    21 1   
    14     5    22 1   
    15     6    23 1   
    16     6    24 1   
    17     7    10 1   
    18     7    11 1   
    19     7    25 1   
    20     7    30 1   
    21     8     9 2   
    22     9    10 1   
    23    11    12 2   
    24    13    26 1   
    25    15    16 1   
    26    15    19 ar  
    27    17    18 ar  
    28    17    27 1   
    29    18    19 ar  
    30    18    28 1   
    31    19    29 1   
@<TRIPOS>SUBSTRUCTURE
     1 T4H         1 TEMP              0 ****  ****    0 ROOT
