@<TRIPOS>MOLECULE
T4I
   59    63     1     0     0
SMALL
No Charge or Current Charge


@<TRIPOS>ATOM
      1 C10          1.8010    -2.1710    83.7060 ca         1 T4I      -0.176600
      2 C13          0.4680    -0.5670    84.9450 ca         1 T4I      -0.184000
      3 C15         -0.6580    -2.3510    83.7280 ca         1 T4I      -0.214600
      4 C21         -1.9690    -3.0050    83.3360 c          1 T4I       0.594600
      5 C26         -4.9970    -4.0060    84.2470 ca         1 T4I      -0.091300
      6 C28         -5.2110    -6.3320    84.9640 ca         1 T4I      -0.099000
      7 C1           4.7970    -6.0980    82.4860 c6         1 T4I      -0.074200
      8 C2           4.4240    -6.8560    83.7790 c6         1 T4I      -0.063400
      9 C3           3.0100    -6.4490    84.2400 c6         1 T4I      -0.180400
     10 C4           2.9150    -4.9360    84.4510 c          1 T4I       0.604300
     11 C5           3.5510    -4.0800    83.4150 ce         1 T4I      -0.485400
     12 C6           4.4260    -4.6220    82.5390 c2         1 T4I       0.283900
     13 C9           3.1910    -2.6380    83.3550 c          1 T4I       0.638900
     14 C12          1.7100    -1.0370    84.5230 ca         1 T4I      -0.001000
     15 C14         -0.7170    -1.2540    84.6140 ca         1 T4I       0.141600
     16 C16          0.6140    -2.8000    83.2390 ca         1 T4I       0.079700
     17 C19         -3.2060    -1.2240    84.5170 c          1 T4I       0.620000
     18 C27         -4.7120    -5.3740    84.0650 ca         1 T4I      -0.090000
     19 C29         -6.0040    -5.9320    86.0540 ca         1 T4I      -0.035000
     20 C30         -6.2990    -4.5640    86.2410 ca         1 T4I      -0.036000
     21 C31         -5.7970    -3.6090    85.3370 ca         1 T4I      -0.083000
     22 C32         -6.5060    -6.8870    86.9580 ca         1 T4I      -0.099000
     23 C33         -7.2990    -6.4800    88.0450 ca         1 T4I      -0.108000
     24 C34         -7.5940    -5.1190    88.2310 ca         1 T4I      -0.110000
     25 C35         -7.0950    -4.1610    87.3300 ca         1 T4I      -0.095000
     26 N18         -1.9910    -0.7300    85.0220 n          1 T4I      -0.305000
     27 N20         -3.1570    -2.3630    83.7090 n          1 T4I      -0.376400
     28 O7           5.0480    -3.9020    81.6010 oh         1 T4I      -0.543100
     29 O11          3.9900    -1.8470    82.8690 o          1 T4I      -0.601100
     30 O24         -2.0140    -4.0720    82.7400 o          1 T4I      -0.532000
     31 O25         -4.2710    -0.6880    84.7940 o          1 T4I      -0.552000
     32 H1           0.4540     0.3300    85.5570 ha         1 T4I       0.127000
     33 H2           0.5640    -4.8800    82.5530 hc         1 T4I       0.059700
     34 H3          -0.0100    -3.7050    81.3480 hc         1 T4I       0.059700
     35 H4           1.6850    -3.8680    81.6260 hc         1 T4I       0.059700
     36 H5          -3.0400     0.3600    86.5560 h1         1 T4I       0.059700
     37 H6          -1.3310     0.0630    86.8860 h1         1 T4I       0.059700
     38 H7          -1.8020     1.2880    85.6680 h1         1 T4I       0.059700
     39 H8          -4.9800    -7.3830    84.8110 ha         1 T4I       0.113000
     40 H9           4.2800    -6.5550    81.6310 hc         1 T4I       0.081200
     41 H10          5.8720    -6.2110    82.2900 hc         1 T4I       0.081200
     42 H11          4.4800    -7.9410    83.6130 hc         1 T4I       0.057700
     43 H12          5.1500    -6.6200    84.5700 hc         1 T4I       0.057700
     44 H13          2.6770    -6.9850    85.1390 hc         1 T4I       0.073200
     45 H14          2.3320    -6.6940    83.4120 hc         1 T4I       0.073200
     46 H17          2.6130    -0.5180    84.8410 ha         1 T4I       0.125000
     47 H18         -5.2020    -2.1800    83.1270 h1         1 T4I       0.079700
     48 H19         -4.3270    -3.4290    82.2830 h1         1 T4I       0.079700
     49 H20         -4.1010    -5.6980    83.2260 ha         1 T4I       0.118000
     50 H21         -6.0300    -2.5570    85.4830 ha         1 T4I       0.113000
     51 H22         -6.2830    -7.9430    86.8210 ha         1 T4I       0.112000
     52 H23         -7.6860    -7.2200    88.7420 ha         1 T4I       0.111000
     53 H24         -8.2080    -4.8050    89.0720 ha         1 T4I       0.111000
     54 H25         -7.3270    -3.1090    87.4810 ha         1 T4I       0.112000
     55 H26          4.8250    -2.9620    81.8250 ho         1 T4I       0.548000
     56 C17          0.7230    -3.8750    82.1450 c3         1 T4I      -0.058800
     57 C22         -2.0480     0.3060    86.0920 c3         1 T4I       0.086300
     58 C23         -4.4500    -2.9670    83.2710 c3         1 T4I       0.147300
     59 O8           2.3510    -4.4750    85.4300 o          1 T4I      -0.535100
@<TRIPOS>BOND
     1     1    13 1   
     2     1    14 ar  
     3     1    16 ar  
     4     2    14 ar  
     5     2    15 ar  
     6     2    32 1   
     7     3     4 1   
     8     3    15 ar  
     9     3    16 ar  
    10     4    27 1   
    11     4    30 2   
    12     5    18 ar  
    13     5    21 ar  
    14     5    58 1   
    15     6    18 ar  
    16     6    19 ar  
    17     6    39 1   
    18     7     8 1   
    19     7    12 1   
    20     7    40 1   
    21     7    41 1   
    22     8     9 1   
    23     8    42 1   
    24     8    43 1   
    25     9    10 1   
    26     9    44 1   
    27     9    45 1   
    28    10    11 1   
    29    10    59 2   
    30    11    12 2   
    31    11    13 1   
    32    12    28 1   
    33    13    29 2   
    34    14    46 1   
    35    15    26 1   
    36    16    56 1   
    37    17    26 1   
    38    17    27 1   
    39    17    31 2   
    40    18    49 1   
    41    19    20 ar  
    42    19    22 ar  
    43    20    21 ar  
    44    20    25 ar  
    45    21    50 1   
    46    22    23 ar  
    47    22    51 1   
    48    23    24 ar  
    49    23    52 1   
    50    24    25 ar  
    51    24    53 1   
    52    25    54 1   
    53    26    57 1   
    54    27    58 1   
    55    28    55 1   
    56    33    56 1   
    57    34    56 1   
    58    35    56 1   
    59    36    57 1   
    60    37    57 1   
    61    38    57 1   
    62    47    58 1   
    63    48    58 1   
@<TRIPOS>SUBSTRUCTURE
     1 T4I         1 TEMP              0 ****  ****    0 ROOT
