@<TRIPOS>MOLECULE
T4I
   59    63     1     0     0
SMALL
abcg2


@<TRIPOS>ATOM
      1 C10          1.7240    -2.4110    83.4940 ca         1 T4I      -0.176600
      2 C13          0.6980    -0.9040    85.0780 ca         1 T4I      -0.184000
      3 C15         -0.6750    -2.3940    83.7370 ca         1 T4I      -0.214600
      4 C21         -2.0130    -2.8990    83.4080 c          1 T4I       0.594600
      5 C26         -5.0040    -3.7120    84.7630 ca         1 T4I      -0.091300
      6 C28         -4.6980    -5.5940    86.2570 ca         1 T4I      -0.099000
      7 C1           5.2580    -5.9160    82.2760 c6         1 T4I      -0.074200
      8 C2           4.9130    -6.7060    83.5310 c6         1 T4I      -0.063400
      9 C3           3.4160    -6.6190    83.8060 c6         1 T4I      -0.180400
     10 C4           2.9330    -5.1900    83.9300 c          1 T4I       0.604300
     11 C5           3.5370    -4.1970    83.0250 ce         1 T4I      -0.485400
     12 C6           4.6640    -4.5500    82.2800 c2         1 T4I       0.283900
     13 C9           3.0080    -2.8530    82.8700 c          1 T4I       0.638900
     14 C12          1.8190    -1.4050    84.4540 ca         1 T4I      -0.001000
     15 C14         -0.5630    -1.3960    84.7280 ca         1 T4I       0.141600
     16 C16          0.4820    -2.9070    83.1020 ca         1 T4I       0.079700
     17 C19         -2.9680    -1.3070    85.0480 c          1 T4I       0.620000
     18 C27         -4.1770    -4.6860    85.3740 ca         1 T4I      -0.090000
     19 C29         -6.0770    -5.5900    86.5780 ca         1 T4I      -0.035000
     20 C30         -6.9170    -4.6120    85.9650 ca         1 T4I      -0.036000
     21 C31         -6.3430    -3.6830    85.0650 ca         1 T4I      -0.083000
     22 C32         -6.6480    -6.5160    87.4840 ca         1 T4I      -0.099000
     23 C33         -7.9890    -6.4800    87.7710 ca         1 T4I      -0.108000
     24 C34         -8.8210    -5.5110    87.1650 ca         1 T4I      -0.110000
     25 C35         -8.2970    -4.5990    86.2840 ca         1 T4I      -0.095000
     26 N18         -1.6960    -0.8920    85.3580 n          1 T4I      -0.305000
     27 N20         -3.0790    -2.2880    84.0720 n          1 T4I      -0.376400
     28 O7           5.2710    -3.6920    81.5040 oh         1 T4I      -0.543100
     29 O11          3.6250    -1.9980    82.1990 o          1 T4I      -0.601100
     30 O24         -2.2420    -3.8060    82.6210 o          1 T4I      -0.532000
     31 O25         -3.9640    -0.8540    85.5940 o          1 T4I      -0.552000
     32 H1           0.8090    -0.1360    85.8250 ha         1 T4I       0.127000
     33 H2           0.0420    -4.8900    82.3910 hc         1 T4I       0.059700
     34 H3          -0.2810    -3.6280    81.2260 hc         1 T4I       0.059700
     35 H4           1.3860    -4.1000    81.5610 hc         1 T4I       0.059700
     36 H5          -2.5410     0.3760    86.7630 h1         1 T4I       0.059700
     37 H6          -0.9400    -0.2420    87.2100 h1         1 T4I       0.059700
     38 H7          -1.0930     1.0290    85.9740 h1         1 T4I       0.059700
     39 H8          -4.0560    -6.3330    86.7220 ha         1 T4I       0.113000
     40 H9           4.8610    -6.4260    81.3890 hc         1 T4I       0.081200
     41 H10          6.3350    -5.8210    82.1280 hc         1 T4I       0.081200
     42 H11          5.2180    -7.7450    83.4100 hc         1 T4I       0.057700
     43 H12          5.4670    -6.3010    84.3830 hc         1 T4I       0.057700
     44 H13          3.1350    -7.1480    84.7160 hc         1 T4I       0.073200
     45 H14          2.8630    -7.0710    82.9730 hc         1 T4I       0.073200
     46 H17          2.7930    -1.0200    84.7260 ha         1 T4I       0.125000
     47 H18         -5.0790    -1.8620    83.6860 h1         1 T4I       0.079700
     48 H19         -4.3820    -3.2070    82.7760 h1         1 T4I       0.079700
     49 H20         -3.1200    -4.7120    85.1430 ha         1 T4I       0.118000
     50 H21         -6.9830    -2.9340    84.6130 ha         1 T4I       0.113000
     51 H22         -6.0060    -7.2560    87.9470 ha         1 T4I       0.112000
     52 H23         -8.4170    -7.1930    88.4650 ha         1 T4I       0.111000
     53 H24         -9.8780    -5.4940    87.4000 ha         1 T4I       0.111000
     54 H25         -8.9330    -3.8560    85.8180 ha         1 T4I       0.112000
     55 H26          4.7660    -2.8100    81.6050 ho         1 T4I       0.548000
     56 C17          0.4080    -3.9380    82.0080 c3         1 T4I      -0.058800
     57 C22         -1.5530     0.1350    86.3920 c3         1 T4I       0.086300
     58 C23         -4.4400    -2.7380    83.7550 c3         1 T4I       0.147300
     59 O8           2.0730    -4.9010    84.7520 o          1 T4I      -0.535100
@<TRIPOS>BOND
     1     1    13 1   
     2     1    14 ar  
     3     1    16 ar  
     4     2    14 ar  
     5     2    15 ar  
     6     2    32 1   
     7     3     4 1   
     8     3    15 ar  
     9     3    16 ar  
    10     4    27 1   
    11     4    30 2   
    12     5    18 ar  
    13     5    21 ar  
    14     5    58 1   
    15     6    18 ar  
    16     6    19 ar  
    17     6    39 1   
    18     7     8 1   
    19     7    12 1   
    20     7    40 1   
    21     7    41 1   
    22     8     9 1   
    23     8    42 1   
    24     8    43 1   
    25     9    10 1   
    26     9    44 1   
    27     9    45 1   
    28    10    11 1   
    29    10    59 2   
    30    11    12 2   
    31    11    13 1   
    32    12    28 1   
    33    13    29 2   
    34    14    46 1   
    35    15    26 1   
    36    16    56 1   
    37    17    26 1   
    38    17    27 1   
    39    17    31 2   
    40    18    49 1   
    41    19    20 ar  
    42    19    22 ar  
    43    20    21 ar  
    44    20    25 ar  
    45    21    50 1   
    46    22    23 ar  
    47    22    51 1   
    48    23    24 ar  
    49    23    52 1   
    50    24    25 ar  
    51    24    53 1   
    52    25    54 1   
    53    26    57 1   
    54    27    58 1   
    55    28    55 1   
    56    33    56 1   
    57    34    56 1   
    58    35    56 1   
    59    36    57 1   
    60    37    57 1   
    61    38    57 1   
    62    47    58 1   
    63    48    58 1   
@<TRIPOS>SUBSTRUCTURE
     1 T4I         1 TEMP              0 ****  ****    0 ROOT
