@<TRIPOS>MOLECULE
T4J
   34    35     1     0     0
SMALL
No Charge or Current Charge


@<TRIPOS>ATOM
      1 N1          -2.0290    -0.5340    -0.0650 n          1 T4J      -0.414800
      2 C4           1.1280     2.3770    -0.8650 ca         1 T4J      -0.085000
      3 C5           0.1030     1.4250    -0.7680 ca         1 T4J      -0.117000
      4 C6           0.3900     0.1000    -0.3660 ca         1 T4J      -0.115600
      5 C7           1.7320    -0.2540    -0.0960 ca         1 T4J      -0.098000
      6 C8          -0.6960    -0.9580    -0.2760 c          1 T4J       0.619700
      7 C10         -3.5870     1.2490     0.9040 c6         1 T4J       0.042100
      8 C            6.2940    -0.5830     0.6640 c3         1 T4J      -0.181100
      9 O            4.2180    -1.7840     0.8130 o          1 T4J      -0.575100
     10 C1           4.7810    -0.7330     0.5320 c          1 T4J       0.608100
     11 C11         -4.5130    -0.8910    -0.5740 c6         1 T4J       0.042100
     12 C12         -3.1300    -1.5240    -0.2850 c6         1 T4J       0.097500
     13 C2           2.7700     0.7020    -0.1880 ca         1 T4J      -0.020000
     14 C3           2.4530     2.0170    -0.5720 ca         1 T4J      -0.158000
     15 C9          -2.3030     0.4040     1.0700 c6         1 T4J       0.097500
     16 O1          -0.4350    -2.1390    -0.4750 o          1 T4J      -0.583100
     17 S           -5.1130     0.2210     0.7720 ss         1 T4J      -0.435000
     18 H4           0.8970     3.3940    -1.1730 ha         1 T4J       0.117000
     19 H5          -0.9130     1.7180    -1.0250 ha         1 T4J       0.120000
     20 H6           1.9470    -1.2790     0.1890 ha         1 T4J       0.161000
     21 H9          -3.7010     1.9250     1.7630 h1         1 T4J       0.075700
     22 H10         -3.5060     1.8650    -0.0020 h1         1 T4J       0.075700
     23 H2           4.7580     1.1910    -0.0920 hn         1 T4J       0.149000
     24 H            6.5120     0.2730     1.3120 hc         1 T4J       0.064367
     25 H15          6.7790    -1.4970     1.0230 hc         1 T4J       0.064367
     26 H1           6.7050    -0.2570    -0.2990 hc         1 T4J       0.064367
     27 H11         -4.4560    -0.3030    -1.5000 h1         1 T4J       0.075700
     28 H12         -5.2590    -1.6830    -0.7250 h1         1 T4J       0.075700
     29 H13         -2.8740    -2.1710    -1.1360 h1         1 T4J       0.067950
     30 H14         -3.2090    -2.1720     0.5990 h1         1 T4J       0.067950
     31 H3           3.2380     2.7660    -0.6520 ha         1 T4J       0.111000
     32 H7          -2.3920    -0.1850     1.9940 h1         1 T4J       0.067950
     33 H8          -1.4560     1.0850     1.2280 h1         1 T4J       0.067950
     34 N            4.1360     0.4120     0.0810 ns         1 T4J      -0.149000
@<TRIPOS>BOND
     1     1     6 1   
     2     1    12 1   
     3     1    15 1   
     4     2     3 ar  
     5     2    14 ar  
     6     2    18 1   
     7     3     4 ar  
     8     3    19 1   
     9     4     5 ar  
    10     4     6 1   
    11     5    13 ar  
    12     5    20 1   
    13     6    16 2   
    14     7    15 1   
    15     7    17 1   
    16     7    21 1   
    17     7    22 1   
    18     8    10 1   
    19     8    24 1   
    20     8    25 1   
    21     8    26 1   
    22     9    10 2   
    23    10    34 1   
    24    11    12 1   
    25    11    17 1   
    26    11    27 1   
    27    11    28 1   
    28    12    29 1   
    29    12    30 1   
    30    13    14 ar  
    31    13    34 1   
    32    14    31 1   
    33    15    32 1   
    34    15    33 1   
    35    23    34 1   
@<TRIPOS>SUBSTRUCTURE
     1 T4J         1 TEMP              0 ****  ****    0 ROOT
