@<TRIPOS>MOLECULE
T4J
   34    35     1     0     0
SMALL
abcg2


@<TRIPOS>ATOM
      1 N1          -1.8430    -0.7210     0.0660 n          1 T4J      -0.414800
      2 C4           1.0600     2.4000    -1.1880 ca         1 T4J      -0.085000
      3 C5           0.0210     1.4800    -1.1610 ca         1 T4J      -0.117000
      4 C6           0.2760     0.1890    -0.7180 ca         1 T4J      -0.115600
      5 C7           1.5500    -0.1930    -0.3110 ca         1 T4J      -0.098000
      6 C8          -0.7930    -0.8610    -0.7700 c          1 T4J       0.619700
      7 C10         -3.0840     1.2150     0.9480 c6         1 T4J       0.042100
      8 C            5.8630    -0.5560     1.0260 c3         1 T4J      -0.181100
      9 O            3.7600    -1.6730     0.8510 o          1 T4J      -0.575100
     10 C1           4.4060    -0.6590     0.6520 c          1 T4J       0.608100
     11 C11         -4.2580    -0.9010    -0.3310 c6         1 T4J       0.042100
     12 C12         -2.9690    -1.6370    -0.0040 c6         1 T4J       0.097500
     13 C2           2.5840     0.7430    -0.3130 ca         1 T4J      -0.020000
     14 C3           2.3250     2.0410    -0.7620 ca         1 T4J      -0.158000
     15 C9          -1.9190     0.2590     1.1350 c6         1 T4J       0.097500
     16 O1          -0.6810    -1.7870    -1.5620 o          1 T4J      -0.583100
     17 S           -4.6740     0.3430     0.9220 ss         1 T4J      -0.435000
     18 H4           0.8810     3.4070    -1.5390 ha         1 T4J       0.117000
     19 H5          -0.9710     1.7680    -1.4870 ha         1 T4J       0.120000
     20 H6           1.7240    -1.2060     0.0130 ha         1 T4J       0.161000
     21 H9          -3.1250     1.9130     1.7840 h1         1 T4J       0.075700
     22 H10         -2.9640     1.7980     0.0320 h1         1 T4J       0.075700
     23 H2           4.5310     1.2420    -0.0040 hn         1 T4J       0.149000
     24 H            5.9490    -0.5420     2.1140 hc         1 T4J       0.064367
     25 H15          6.3930    -1.4370     0.6680 hc         1 T4J       0.064367
     26 H1           6.3560     0.3310     0.6350 hc         1 T4J       0.064367
     27 H11         -4.1900    -0.4320    -1.3150 h1         1 T4J       0.075700
     28 H12         -5.0900    -1.6050    -0.3540 h1         1 T4J       0.075700
     29 H13         -2.7730    -2.3840    -0.7700 h1         1 T4J       0.067950
     30 H14         -3.0680    -2.1560     0.9530 h1         1 T4J       0.067950
     31 H3           3.1230     2.7740    -0.7760 ha         1 T4J       0.111000
     32 H7          -2.0300    -0.2710     2.0860 h1         1 T4J       0.067950
     33 H8          -0.9910     0.8230     1.1900 h1         1 T4J       0.067950
     34 N            3.8900     0.4710     0.1000 ns         1 T4J      -0.149000
@<TRIPOS>BOND
     1     1     6 1   
     2     1    12 1   
     3     1    15 1   
     4     2     3 ar  
     5     2    14 ar  
     6     2    18 1   
     7     3     4 ar  
     8     3    19 1   
     9     4     5 ar  
    10     4     6 1   
    11     5    13 ar  
    12     5    20 1   
    13     6    16 2   
    14     7    15 1   
    15     7    17 1   
    16     7    21 1   
    17     7    22 1   
    18     8    10 1   
    19     8    24 1   
    20     8    25 1   
    21     8    26 1   
    22     9    10 2   
    23    10    34 1   
    24    11    12 1   
    25    11    17 1   
    26    11    27 1   
    27    11    28 1   
    28    12    29 1   
    29    12    30 1   
    30    13    14 ar  
    31    13    34 1   
    32    14    31 1   
    33    15    32 1   
    34    15    33 1   
    35    23    34 1   
@<TRIPOS>SUBSTRUCTURE
     1 T4J         1 TEMP              0 ****  ****    0 ROOT
