@<TRIPOS>MOLECULE
T4L
   56    59     1     0     0
SMALL
abcg2


@<TRIPOS>ATOM
      1 C12         10.9930    13.5970   -28.0340 cc         1 T4L      -0.114300
      2 C18          9.5810    11.6890   -28.9000 c3         1 T4L      -0.092100
      3 C19         18.6040    14.0020   -30.2750 c6         1 T4L      -0.073400
      4 C20         19.3540    14.9610   -31.2010 c6         1 T4L      -0.076400
      5 C21         17.4270    14.6980   -29.5890 c6         1 T4L      -0.071900
      6 C22         16.4710    15.3350   -30.6050 c6         1 T4L      -0.072700
      7 C25         15.2500    15.9530   -29.9070 c3         1 T4L       0.252500
      8 C27         14.1300    16.3620   -30.8630 c3         1 T4L       0.139600
      9 C01         13.3590    16.9840   -26.3910 ca         1 T4L       0.495900
     10 C03         15.0290    17.4460   -27.9240 ca         1 T4L       0.449900
     11 C05         13.4710    18.7670   -24.4180 cc         1 T4L       0.405800
     12 C06         13.7990    18.0870   -25.6180 ca         1 T4L      -0.437900
     13 C07         14.8940    18.7930   -26.1510 ca         1 T4L       0.211500
     14 C10         10.7250    12.6650   -29.1820 c3         1 T4L      -0.001400
     15 C13         11.8860    14.6530   -27.9370 cd         1 T4L      -0.223000
     16 C14         11.7080    15.1570   -26.6320 cd         1 T4L       0.503900
     17 C17         12.0070    11.9170   -29.5780 c3         1 T4L      -0.092100
     18 C23         17.2320    16.2990   -31.5260 c6         1 T4L      -0.071900
     19 C24         18.4050    15.5990   -32.2170 c6         1 T4L      -0.073400
     20 N02         13.9790    16.6880   -27.5270 nb         1 T4L      -0.341000
     21 N04         15.5400    18.5150   -27.2870 nb         1 T4L      -0.309000
     22 N08         15.1450    19.7990   -25.2820 na         1 T4L      -0.184100
     23 N09         14.2790    19.7920   -24.2200 nd         1 T4L      -0.530100
     24 N11         10.3640    13.5320   -26.8420 na         1 T4L      -0.011200
     25 N15         10.7810    14.4730   -25.9600 nc         1 T4L      -0.580800
     26 N16         12.3060    16.2330   -25.9820 nu         1 T4L      -0.881800
     27 N26         15.6280    17.0890   -29.0830 nu         1 T4L      -0.928100
     28 H1           8.6540    12.2110   -28.6560 hc         1 T4L       0.041033
     29 H2           9.3980    11.0730   -29.7810 hc         1 T4L       0.041033
     30 H3           9.8300    11.0200   -28.0720 hc         1 T4L       0.041033
     31 H5          19.2830    13.5880   -29.5260 hc         1 T4L       0.039950
     32 H6          20.1630    14.4350   -31.7170 hc         1 T4L       0.038700
     33 H7          19.8200    15.7500   -30.6000 hc         1 T4L       0.038700
     34 H8          17.8070    15.4750   -28.9170 hc         1 T4L       0.040700
     35 H9          16.8760    13.9860   -28.9680 hc         1 T4L       0.040700
     36 H10         16.0730    14.5320   -31.2320 hc         1 T4L       0.072700
     37 H11         14.8380    15.1950   -29.2400 h1         1 T4L       0.088700
     38 H12         14.4890    17.1150   -31.5730 h1         1 T4L       0.033700
     39 H13         13.3220    16.8050   -30.2750 h1         1 T4L       0.033700
     40 H14         12.6890    18.5510   -23.7050 h4         1 T4L       0.044800
     41 H15         10.4340    13.2900   -30.0320 hc         1 T4L       0.064700
     42 H16         12.5620    15.0050   -28.6900 ha         1 T4L       0.168000
     43 H17         12.8120    12.6140   -29.8120 hc         1 T4L       0.041033
     44 H18         12.3390    11.2710   -28.7620 hc         1 T4L       0.041033
     45 H19         11.8230    11.2960   -30.4570 hc         1 T4L       0.041033
     46 H20         17.6290    17.1390   -30.9450 hc         1 T4L       0.040700
     47 H21         16.5600    16.7230   -32.2760 hc         1 T4L       0.040700
     48 H22         18.0170    14.8210   -32.8850 hc         1 T4L       0.039950
     49 H23         18.9450    16.3130   -32.8450 hc         1 T4L       0.039950
     50 H24         15.8610    20.5040   -25.3440 hn         1 T4L       0.383000
     51 H25          9.6530    12.8780   -26.5580 hn         1 T4L       0.372000
     52 H26         11.8980    16.4670   -25.0890 hn         1 T4L       0.517000
     53 H27         16.3870    17.6780   -29.3830 hn         1 T4L       0.508000
     54 H28         12.9140    15.4420   -32.0950 ho         1 T4L       0.445000
     55 O28         13.6710    15.1960   -31.5510 oh         1 T4L      -0.672000
     56 H4          18.2270    13.1570   -30.8630 hc         1 T4L       0.039950
@<TRIPOS>BOND
     1     1    14 1   
     2     1    15 2   
     3     1    24 1   
     4     2    14 1   
     5     2    28 1   
     6     2    29 1   
     7     2    30 1   
     8     3     4 1   
     9     3     5 1   
    10     3    31 1   
    11     3    56 1   
    12     4    19 1   
    13     4    32 1   
    14     4    33 1   
    15     5     6 1   
    16     5    34 1   
    17     5    35 1   
    18     6     7 1   
    19     6    18 1   
    20     6    36 1   
    21     7     8 1   
    22     7    27 1   
    23     7    37 1   
    24     8    38 1   
    25     8    39 1   
    26     8    55 1   
    27     9    12 ar  
    28     9    20 ar  
    29     9    26 1   
    30    10    20 ar  
    31    10    21 ar  
    32    10    27 1   
    33    11    12 1   
    34    11    23 2   
    35    11    40 1   
    36    12    13 ar  
    37    13    21 ar  
    38    13    22 1   
    39    14    17 1   
    40    14    41 1   
    41    15    16 1   
    42    15    42 1   
    43    16    25 2   
    44    16    26 1   
    45    17    43 1   
    46    17    44 1   
    47    17    45 1   
    48    18    19 1   
    49    18    46 1   
    50    18    47 1   
    51    19    48 1   
    52    19    49 1   
    53    22    23 1   
    54    22    50 1   
    55    24    25 1   
    56    24    51 1   
    57    26    52 1   
    58    27    53 1   
    59    54    55 1   
@<TRIPOS>SUBSTRUCTURE
     1 T4L         1 TEMP              0 ****  ****    0 ROOT
