@<TRIPOS>MOLECULE
T4L
   56    59     1     0     0
SMALL
No Charge or Current Charge


@<TRIPOS>ATOM
      1 C12         10.9060    13.3620   -27.7820 cc         1 T4L      -0.114300
      2 C18          9.2790    12.4730   -29.4960 c3         1 T4L      -0.092100
      3 C19         19.1390    14.4110   -30.6230 c6         1 T4L      -0.073400
      4 C20         19.6910    15.5410   -31.5250 c6         1 T4L      -0.076400
      5 C21         17.8970    14.8860   -29.8280 c6         1 T4L      -0.071900
      6 C22         16.7830    15.4270   -30.7760 c6         1 T4L      -0.072700
      7 C25         15.4820    15.8300   -29.9920 c3         1 T4L       0.252500
      8 C27         14.2530    16.1840   -30.8940 c3         1 T4L       0.139600
      9 C01         13.3720    16.8520   -26.4330 ca         1 T4L       0.495900
     10 C03         15.0740    17.2720   -27.9000 ca         1 T4L       0.449900
     11 C05         13.3330    18.5590   -24.4970 cc         1 T4L       0.405800
     12 C06         13.8060    17.9500   -25.7050 ca         1 T4L      -0.437900
     13 C07         14.8800    18.6690   -26.1270 ca         1 T4L       0.211500
     14 C10         10.6700    12.3190   -28.8450 c3         1 T4L      -0.001400
     15 C13         11.8360    14.3600   -27.7170 cd         1 T4L      -0.223000
     16 C14         11.6140    15.0450   -26.5110 cd         1 T4L       0.503900
     17 C17         10.8920    10.8910   -28.3010 c3         1 T4L      -0.092100
     18 C23         17.3490    16.5580   -31.6920 c6         1 T4L      -0.071900
     19 C24         18.5960    16.0790   -32.4780 c6         1 T4L      -0.073400
     20 N02         14.0220    16.5040   -27.5530 nb         1 T4L      -0.341000
     21 N04         15.5490    18.3480   -27.2440 nb         1 T4L      -0.309000
     22 N08         15.0350    19.6700   -25.1940 na         1 T4L      -0.184100
     23 N09         14.0800    19.6220   -24.1670 nd         1 T4L      -0.530100
     24 N11         10.1790    13.5190   -26.5980 na         1 T4L      -0.011200
     25 N15         10.6210    14.5730   -25.8050 nc         1 T4L      -0.580800
     26 N16         12.2840    16.1100   -26.0190 nu         1 T4L      -0.881800
     27 N26         15.7660    16.9360   -29.0480 nu         1 T4L      -0.928100
     28 H1           9.1570    13.4830   -29.9060 hc         1 T4L       0.041033
     29 H2           9.1520    11.7560   -30.3150 hc         1 T4L       0.041033
     30 H3           8.4810    12.3020   -28.7640 hc         1 T4L       0.041033
     31 H5          19.9200    14.0750   -29.9280 hc         1 T4L       0.039950
     32 H6          20.5440    15.1690   -32.1090 hc         1 T4L       0.038700
     33 H7          20.0740    16.3600   -30.9010 hc         1 T4L       0.038700
     34 H8          18.2030    15.6630   -29.1140 hc         1 T4L       0.040700
     35 H9          17.5060    14.0510   -29.2300 hc         1 T4L       0.040700
     36 H10         16.4830    14.5940   -31.4260 hc         1 T4L       0.072700
     37 H11         15.1970    14.9400   -29.4120 h1         1 T4L       0.088700
     38 H12         14.4920    17.0640   -31.5060 h1         1 T4L       0.033700
     39 H13         13.4090    16.4630   -30.2490 h1         1 T4L       0.033700
     40 H14         12.5080    18.3060   -23.8440 h4         1 T4L       0.044800
     41 H15         11.4120    12.4760   -29.6390 hc         1 T4L       0.064700
     42 H16         12.5920    14.5730   -28.4590 ha         1 T4L       0.168000
     43 H17         11.8990    10.7950   -27.8760 hc         1 T4L       0.041033
     44 H18         10.1640    10.6520   -27.5170 hc         1 T4L       0.041033
     45 H19         10.7890    10.1500   -29.1030 hc         1 T4L       0.041033
     46 H20         17.6170    17.4380   -31.0930 hc         1 T4L       0.040700
     47 H21         16.5850    16.8890   -32.4080 hc         1 T4L       0.040700
     48 H22         18.3060    15.2930   -33.1880 hc         1 T4L       0.039950
     49 H23         18.9990    16.9070   -33.0770 hc         1 T4L       0.039950
     50 H24         15.7580    20.3870   -25.2200 hn         1 T4L       0.383000
     51 H25          9.3920    12.9390   -26.3090 hn         1 T4L       0.372000
     52 H26         11.8810    16.4120   -25.1420 hn         1 T4L       0.517000
     53 H27         16.5690    17.5270   -29.2480 hn         1 T4L       0.508000
     54 H28         13.1030    15.3800   -32.2730 ho         1 T4L       0.445000
     55 O28         13.8690    15.0800   -31.7350 oh         1 T4L      -0.672000
     56 H4          18.8740    13.5410   -31.2400 hc         1 T4L       0.039950
@<TRIPOS>BOND
     1     1    14 1   
     2     1    15 2   
     3     1    24 1   
     4     2    14 1   
     5     2    28 1   
     6     2    29 1   
     7     2    30 1   
     8     3     4 1   
     9     3     5 1   
    10     3    31 1   
    11     3    56 1   
    12     4    19 1   
    13     4    32 1   
    14     4    33 1   
    15     5     6 1   
    16     5    34 1   
    17     5    35 1   
    18     6     7 1   
    19     6    18 1   
    20     6    36 1   
    21     7     8 1   
    22     7    27 1   
    23     7    37 1   
    24     8    38 1   
    25     8    39 1   
    26     8    55 1   
    27     9    12 ar  
    28     9    20 ar  
    29     9    26 1   
    30    10    20 ar  
    31    10    21 ar  
    32    10    27 1   
    33    11    12 1   
    34    11    23 2   
    35    11    40 1   
    36    12    13 ar  
    37    13    21 ar  
    38    13    22 1   
    39    14    17 1   
    40    14    41 1   
    41    15    16 1   
    42    15    42 1   
    43    16    25 2   
    44    16    26 1   
    45    17    43 1   
    46    17    44 1   
    47    17    45 1   
    48    18    19 1   
    49    18    46 1   
    50    18    47 1   
    51    19    48 1   
    52    19    49 1   
    53    22    23 1   
    54    22    50 1   
    55    24    25 1   
    56    24    51 1   
    57    26    52 1   
    58    27    53 1   
    59    54    55 1   
@<TRIPOS>SUBSTRUCTURE
     1 T4L         1 TEMP              0 ****  ****    0 ROOT
