@<TRIPOS>MOLECULE
T4M
   31    32     1     0     0
SMALL
bcc


@<TRIPOS>ATOM
      1 C4          -0.0780    -0.3520     0.3030 ca         1 T4M      -0.077300
      2 C5          -0.2020    -1.7110     0.1690 ca         1 T4M      -0.117000
      3 C6           0.8870    -2.5200    -0.2110 ca         1 T4M      -0.125000
      4 C7           2.1070    -1.9600    -0.4590 ca         1 T4M      -0.115000
      5 C8           2.2860    -0.5630    -0.3320 ca         1 T4M      -0.036000
      6 C10          3.7260     1.3800    -0.4570 ca         1 T4M      -0.126000
      7 C13          1.1890     0.2550     0.0590 ca         1 T4M      -0.018000
      8 N           -2.5300    -0.1060     0.4220 ns         1 T4M      -0.579900
      9 C           -1.2040     0.7190     2.2690 c3         1 T4M      -0.105100
     10 O           -2.4580     0.4580    -1.7560 o          1 T4M      -0.595100
     11 C1          -1.2570     0.4880     0.7610 c3         1 T4M       0.160000
     12 C11          2.6460     2.1960    -0.0650 ca         1 T4M      -0.125000
     13 C12          1.4170     1.6490     0.1860 ca         1 T4M      -0.119000
     14 C3          -4.3530    -0.7940    -1.0060 c3         1 T4M      -0.180100
     15 C9           3.5450     0.0310    -0.5860 ca         1 T4M      -0.116000
     16 H7          -1.1570    -2.1860     0.3530 ha         1 T4M       0.125000
     17 H8           0.7460    -3.5890    -0.3050 ha         1 T4M       0.130000
     18 H9           2.9500    -2.5740    -0.7540 ha         1 T4M       0.131000
     19 H11          4.6930     1.8230    -0.6550 ha         1 T4M       0.131000
     20 H4          -3.0230    -0.6130     1.1400 hn         1 T4M       0.310500
     21 H1          -1.3110    -0.2220     2.8120 hc         1 T4M       0.044700
     22 H2          -0.2510     1.1580     2.5580 hc         1 T4M       0.044700
     23 H           -1.9990     1.3950     2.5860 hc         1 T4M       0.044700
     24 H3          -1.2150     1.4580     0.2600 h1         1 T4M       0.079700
     25 H12          2.7910     3.2630     0.0390 ha         1 T4M       0.130000
     26 H13          0.6130     2.3080     0.4860 ha         1 T4M       0.130000
     27 H14         -4.7370    -1.2460    -0.0930 hc         1 T4M       0.059367
     28 H6          -5.0920    -0.0850    -1.3770 hc         1 T4M       0.059367
     29 H5          -4.2460    -1.5750    -1.7590 hc         1 T4M       0.059367
     30 H10          4.3690    -0.6050    -0.8860 ha         1 T4M       0.130000
     31 C2          -3.0310    -0.0920    -0.8270 c          1 T4M       0.666100
@<TRIPOS>BOND
     1     1     2 ar  
     2     1     7 ar  
     3     1    11 1   
     4     2     3 ar  
     5     2    16 1   
     6     3     4 ar  
     7     3    17 1   
     8     4     5 ar  
     9     4    18 1   
    10     5     7 ar  
    11     5    15 ar  
    12     6    12 ar  
    13     6    15 ar  
    14     6    19 1   
    15     7    13 ar  
    16     8    11 1   
    17     8    20 1   
    18     8    31 1   
    19     9    11 1   
    20     9    21 1   
    21     9    22 1   
    22     9    23 1   
    23    10    31 2   
    24    11    24 1   
    25    12    13 ar  
    26    12    25 1   
    27    13    26 1   
    28    14    27 1   
    29    14    28 1   
    30    14    29 1   
    31    14    31 1   
    32    15    30 1   
@<TRIPOS>SUBSTRUCTURE
     1 T4M         1 TEMP              0 ****  ****    0 ROOT
