@<TRIPOS>MOLECULE
T4M
   31    32     1     0     0
SMALL
No Charge or Current Charge


@<TRIPOS>ATOM
      1 C4          -0.0250    -0.3750     0.3470 ca         1 T4M      -0.077300
      2 C5          -0.1330    -1.7810     0.2320 ca         1 T4M      -0.099000
      3 C6           0.9560    -2.5600    -0.1830 ca         1 T4M      -0.107000
      4 C7           2.1800    -1.9510    -0.4840 ca         1 T4M      -0.097000
      5 C8           2.3230    -0.5590    -0.3580 ca         1 T4M      -0.036000
      6 C10          3.7480     1.4130    -0.5220 ca         1 T4M      -0.108000
      7 C13          1.2300     0.2420     0.0640 ca         1 T4M      -0.018000
      8 N           -2.5190    -0.1690     0.3610 ns         1 T4M      -0.512900
      9 C           -1.2680     0.6370     2.3200 c3         1 T4M      -0.105100
     10 O           -2.6630     0.8280    -1.6860 o          1 T4M      -0.595100
     11 C1          -1.2560     0.4350     0.7940 c3         1 T4M       0.160000
     12 C11          2.6820     2.2150    -0.0940 ca         1 T4M      -0.107000
     13 C12          1.4340     1.6390     0.1990 ca         1 T4M      -0.101000
     14 C3          -4.4310    -0.6880    -1.0630 c3         1 T4M      -0.180100
     15 C9           3.5700     0.0280    -0.6510 ca         1 T4M      -0.098000
     16 H7          -1.0670    -2.2850     0.4650 ha         1 T4M       0.107000
     17 H8           0.8510    -3.6390    -0.2700 ha         1 T4M       0.112000
     18 H9           3.0190    -2.5630    -0.8060 ha         1 T4M       0.113000
     19 H11          4.7130     1.8620    -0.7480 ha         1 T4M       0.113000
     20 H4          -2.9870    -0.8090     0.9900 hn         1 T4M       0.310500
     21 H1          -1.3310    -0.3260     2.8390 hc         1 T4M       0.044700
     22 H2          -0.3540     1.1440     2.6490 hc         1 T4M       0.044700
     23 H           -2.1260     1.2510     2.6220 hc         1 T4M       0.044700
     24 H3          -1.2200     1.4280     0.3300 h1         1 T4M       0.079700
     25 H12          2.8220     3.2890     0.0140 ha         1 T4M       0.112000
     26 H13          0.6450     2.3020     0.5380 ha         1 T4M       0.112000
     27 H14         -5.1140    -0.4660    -0.2360 hc         1 T4M       0.059367
     28 H6          -4.8890    -0.4740    -2.0350 hc         1 T4M       0.059367
     29 H5          -4.2460    -1.7600    -0.9300 hc         1 T4M       0.059367
     30 H10          4.4030    -0.5900    -0.9770 ha         1 T4M       0.112000
     31 C2          -3.1280     0.0690    -0.8480 c          1 T4M       0.599100
@<TRIPOS>BOND
     1     1     2 ar  
     2     1     7 ar  
     3     1    11 1   
     4     2     3 ar  
     5     2    16 1   
     6     3     4 ar  
     7     3    17 1   
     8     4     5 ar  
     9     4    18 1   
    10     5     7 ar  
    11     5    15 ar  
    12     6    12 ar  
    13     6    15 ar  
    14     6    19 1   
    15     7    13 ar  
    16     8    11 1   
    17     8    20 1   
    18     8    31 1   
    19     9    11 1   
    20     9    21 1   
    21     9    22 1   
    22     9    23 1   
    23    10    31 2   
    24    11    24 1   
    25    12    13 ar  
    26    12    25 1   
    27    13    26 1   
    28    14    27 1   
    29    14    28 1   
    30    14    29 1   
    31    14    31 1   
    32    15    30 1   
@<TRIPOS>SUBSTRUCTURE
     1 T4M         1 TEMP              0 ****  ****    0 ROOT
