@<TRIPOS>MOLECULE
T4N
   35    36     1     0     0
SMALL
bcc


@<TRIPOS>ATOM
      1 C1         -32.1120   -15.1280    19.0610 c3         1 T4N       0.125700
      2 C3         -30.6810   -14.2340    17.3940 ca         1 T4N       0.130100
      3 C8         -29.1900   -12.1540    12.9340 c          1 T4N       0.673100
      4 C10        -29.1430   -11.0790    11.8650 c3         1 T4N      -0.140400
      5 C11        -27.7040   -10.7590    11.5010 c6         1 T4N      -0.041600
      6 C14        -25.2790    -9.5600    12.2750 c6         1 T4N      -0.011300
      7 C15        -25.1900    -9.9410    10.8030 c6         1 T4N       0.103000
      8 C19        -29.1340   -13.3420    15.7690 ca         1 T4N      -0.104000
      9 C20        -29.3870   -14.1180    16.8840 ca         1 T4N      -0.175500
     10 O2         -30.8260   -15.0020    18.4910 os         1 T4N      -0.316900
     11 C4         -31.7210   -13.5600    16.7600 ca         1 T4N      -0.175500
     12 C5         -31.4610   -12.7950    15.6300 ca         1 T4N      -0.104000
     13 C6         -30.1750   -12.6730    15.1250 ca         1 T4N       0.019600
     14 N7         -29.9480   -11.8420    14.0090 ns         1 T4N      -0.475100
     15 O9         -28.5850   -13.2040    12.8130 o          1 T4N      -0.585100
     16 S13        -26.8900   -10.0440    12.9830 ss         1 T4N      -0.324200
     17 N16        -26.3220    -9.4510    10.0520 ns         1 T4N      -0.576900
     18 C17        -27.5920    -9.7680    10.3570 c          1 T4N       0.712500
     19 O18        -28.5620    -9.3050     9.7800 o          1 T4N      -0.622500
     20 H1         -32.0040   -15.7710    19.9310 h1         1 T4N       0.040033
     21 H2         -32.5130   -14.1630    19.3840 h1         1 T4N       0.040033
     22 H3         -32.8230   -15.5890    18.3700 h1         1 T4N       0.040033
     23 H4         -29.6720   -10.1760    12.1690 hc         1 T4N       0.083700
     24 H5         -29.6530   -11.4690    10.9800 hc         1 T4N       0.083700
     25 H6         -27.1900   -11.6860    11.2340 h1         1 T4N       0.108700
     26 H7         -24.4830   -10.0560    12.8310 h1         1 T4N       0.079200
     27 H8         -25.1650    -8.4830    12.3950 h1         1 T4N       0.079200
     28 H9         -25.0980   -11.0260    10.7050 h1         1 T4N       0.060700
     29 H10        -24.2870    -9.5100    10.3740 h1         1 T4N       0.060700
     30 H11        -28.1170   -13.2450    15.4150 ha         1 T4N       0.141500
     31 H12        -28.5720   -14.6310    17.3780 ha         1 T4N       0.141500
     32 H13        -32.7390   -13.6200    17.1210 ha         1 T4N       0.141500
     33 H14        -32.2810   -12.2830    15.1410 ha         1 T4N       0.141500
     34 H15        -30.4790   -10.9850    13.9720 hn         1 T4N       0.320500
     35 H16        -26.1700    -8.7520     9.3400 hn         1 T4N       0.328500
@<TRIPOS>BOND
     1     1    10 1   
     2     1    20 1   
     3     1    21 1   
     4     1    22 1   
     5     2     9 ar  
     6     2    10 1   
     7     2    11 ar  
     8     3     4 1   
     9     3    14 1   
    10     3    15 2   
    11     4     5 1   
    12     4    23 1   
    13     4    24 1   
    14     5    16 1   
    15     5    18 1   
    16     5    25 1   
    17     6     7 1   
    18     6    16 1   
    19     6    26 1   
    20     6    27 1   
    21     7    17 1   
    22     7    28 1   
    23     7    29 1   
    24     8     9 ar  
    25     8    13 ar  
    26     8    30 1   
    27     9    31 1   
    28    11    12 ar  
    29    11    32 1   
    30    12    13 ar  
    31    12    33 1   
    32    13    14 1   
    33    14    34 1   
    34    17    18 1   
    35    17    35 1   
    36    18    19 2   
@<TRIPOS>SUBSTRUCTURE
     1 T4N         1 TEMP              0 ****  ****    0 ROOT
