@<TRIPOS>MOLECULE
T4N
   35    36     1     0     0
SMALL
No Charge or Current Charge


@<TRIPOS>ATOM
      1 C1         -31.9960   -14.5470    19.4710 c3         1 T4N       0.148900
      2 C3         -30.8360   -14.4100    17.2970 ca         1 T4N       0.130100
      3 C8         -29.0610   -12.6800    12.5830 c          1 T4N       0.606100
      4 C10        -28.9900   -11.5690    11.5320 c3         1 T4N      -0.140400
      5 C11        -27.5750   -10.9180    11.4450 c6         1 T4N       0.006300
      6 C14        -25.7190    -9.0350    12.6040 c6         1 T4N       0.036600
      7 C15        -25.2230    -9.2630    11.1610 c6         1 T4N       0.103000
      8 C19        -29.6450   -14.3860    15.1660 ca         1 T4N      -0.086000
      9 C20        -30.0030   -15.0380    16.3590 ca         1 T4N      -0.157500
     10 O2         -31.1510   -15.1030    18.4480 os         1 T4N      -0.340100
     11 C4         -31.3150   -13.1100    17.0340 ca         1 T4N      -0.157500
     12 C5         -30.9580   -12.4560    15.8410 ca         1 T4N      -0.086000
     13 C6         -30.1240   -13.0840    14.8960 ca         1 T4N      -0.073000
     14 N7         -29.8050   -12.3570    13.7130 ns         1 T4N      -0.149000
     15 O9         -28.5220   -13.7640    12.3950 o          1 T4N      -0.585100
     16 S13        -27.1830   -10.0870    13.0810 ss         1 T4N      -0.420000
     17 N16        -26.3390    -9.1410    10.2150 ns         1 T4N      -0.509900
     18 C17        -27.4440    -9.9560    10.2240 c          1 T4N       0.570000
     19 O18        -28.2830    -9.8640     9.3400 o          1 T4N      -0.547000
     20 H1         -32.1160   -15.2610    20.2950 h1         1 T4N       0.040033
     21 H2         -31.5600   -13.6260    19.8800 h1         1 T4N       0.040033
     22 H3         -32.9930   -14.3180    19.0720 h1         1 T4N       0.040033
     23 H4         -29.7290   -10.7920    11.7580 hc         1 T4N       0.083700
     24 H5         -29.2340   -12.0250    10.5660 hc         1 T4N       0.083700
     25 H6         -26.8250   -11.7060    11.2820 h1         1 T4N       0.108700
     26 H7         -24.9030    -9.2310    13.3140 h1         1 T4N       0.079200
     27 H8         -26.0150    -7.9830    12.7210 h1         1 T4N       0.079200
     28 H9         -24.7790   -10.2650    11.0670 h1         1 T4N       0.060700
     29 H10        -24.4500    -8.5240    10.9080 h1         1 T4N       0.060700
     30 H11        -28.9950   -14.9080    14.4710 ha         1 T4N       0.123500
     31 H12        -29.6300   -16.0400    16.5590 ha         1 T4N       0.123500
     32 H13        -31.9610   -12.5930    17.7370 ha         1 T4N       0.123500
     33 H14        -31.3350   -11.4530    15.6520 ha         1 T4N       0.123500
     34 H15        -30.1860   -11.4200    13.6980 hn         1 T4N       0.154000
     35 H16        -26.2630    -8.4890     9.4430 hn         1 T4N       0.328500
@<TRIPOS>BOND
     1     1    10 1   
     2     1    20 1   
     3     1    21 1   
     4     1    22 1   
     5     2     9 ar  
     6     2    10 1   
     7     2    11 ar  
     8     3     4 1   
     9     3    14 1   
    10     3    15 2   
    11     4     5 1   
    12     4    23 1   
    13     4    24 1   
    14     5    16 1   
    15     5    18 1   
    16     5    25 1   
    17     6     7 1   
    18     6    16 1   
    19     6    26 1   
    20     6    27 1   
    21     7    17 1   
    22     7    28 1   
    23     7    29 1   
    24     8     9 ar  
    25     8    13 ar  
    26     8    30 1   
    27     9    31 1   
    28    11    12 ar  
    29    11    32 1   
    30    12    13 ar  
    31    12    33 1   
    32    13    14 1   
    33    14    34 1   
    34    17    18 1   
    35    17    35 1   
    36    18    19 2   
@<TRIPOS>SUBSTRUCTURE
     1 T4N         1 TEMP              0 ****  ****    0 ROOT
