@<TRIPOS>MOLECULE
T4O
   54    57     1     0     0
SMALL
No Charge or Current Charge


@<TRIPOS>ATOM
      1 N           -5.9380    -7.0850    18.2950 n3         1 T4O      -0.785500
      2 C           -7.2610    -7.3390    18.9070 c3         1 T4O       0.187100
      3 O           -6.9160    -4.9600    17.2460 o          1 T4O      -0.537500
      4 C9          -8.9760   -13.9280    15.3940 ca         1 T4O       0.125000
      5 C8          -9.8810   -13.3680    14.4780 ca         1 T4O      -0.099000
      6 C7          -9.5710   -12.1570    13.8320 ca         1 T4O      -0.090000
      7 C10         -7.7610   -13.2700    15.6710 ca         1 T4O       0.119100
      8 O3          -6.8700   -13.8080    16.5750 os         1 T4O      -0.363400
      9 C11         -6.4210   -13.1090    17.6710 ca         1 T4O       0.574300
     10 N2          -7.1560   -12.0820    18.1590 nb         1 T4O      -0.735000
     11 C15         -6.6930   -11.4300    19.2470 ca         1 T4O       0.361900
     12 C14         -5.4890   -11.7690    19.8850 ca         1 T4O      -0.194000
     13 C13         -4.7270   -12.8350    19.3870 ca         1 T4O      -0.046000
     14 C12         -5.2120   -13.5160    18.2590 ca         1 T4O      -0.166000
     15 C16         -7.4470   -12.0710    15.0060 ca         1 T4O      -0.096000
     16 C6          -8.3450   -11.4910    14.0760 cp         1 T4O      -0.017000
     17 C5          -8.0170   -10.1910    13.4130 cp         1 T4O      -0.002000
     18 C4          -7.4280    -9.1300    14.1450 ca         1 T4O      -0.101000
     19 C17         -8.2580    -9.9450    12.0470 ca         1 T4O      -0.055800
     20 C20         -7.9670    -8.7430    11.4560 ca         1 T4O      -0.067200
     21 N3          -8.3100    -8.8050    10.1070 na         1 T4O      -0.223700
     22 C19         -8.8230   -10.0750     9.7820 cc         1 T4O      -0.145100
     23 C18         -8.7830   -10.7660    10.9800 cd         1 T4O      -0.248200
     24 C21         -7.3970    -7.6670    12.1690 ca         1 T4O      -0.011300
     25 C22         -7.1330    -6.3420    11.4470 c3         1 T4O      -0.052800
     26 C3          -7.1050    -7.8680    13.5570 ca         1 T4O      -0.150600
     27 C2          -6.4470    -6.7930    14.4190 c          1 T4O       0.655700
     28 O2          -5.8350    -5.8420    13.9600 o          1 T4O      -0.543100
     29 N1          -6.5430    -6.9800    15.7590 ns         1 T4O      -0.619300
     30 S           -5.9360    -6.0090    16.9550 s6         1 T4O       1.343900
     31 O1          -4.5410    -5.6560    16.6790 o          1 T4O      -0.537500
     32 C1          -5.1440    -8.3190    18.1050 c3         1 T4O       0.187100
     33 H1          -7.1570    -7.9560    19.8100 h1         1 T4O       0.054533
     34 H2          -7.7460    -6.4010    19.2100 h1         1 T4O       0.054533
     35 H3          -7.9300    -7.8650    18.2140 h1         1 T4O       0.054533
     36 H4         -10.8260   -13.8660    14.2760 ha         1 T4O       0.132000
     37 H5         -10.2960   -11.7210    13.1490 ha         1 T4O       0.126000
     38 H6          -7.3040   -10.6080    19.6160 h4         1 T4O       0.017100
     39 H7          -5.1600   -11.2100    20.7570 ha         1 T4O       0.128000
     40 H8          -3.7910   -13.1280    19.8600 ha         1 T4O       0.126000
     41 H9          -4.6630   -14.3510    17.8360 ha         1 T4O       0.144000
     42 H10         -6.4970   -11.5850    15.2120 ha         1 T4O       0.132000
     43 H11         -7.2170    -9.3160    15.1930 ha         1 T4O       0.113000
     44 H12         -8.1950    -8.0420     9.4480 hn         1 T4O       0.355000
     45 H13         -9.1450   -10.3630     8.7840 h4         1 T4O       0.217000
     46 H14         -9.0870   -11.8050    11.0860 ha         1 T4O       0.211000
     47 H15         -7.5960    -6.2990    10.4560 hc         1 T4O       0.054033
     48 H16         -7.5410    -5.4950    12.0120 hc         1 T4O       0.054033
     49 H17         -6.0580    -6.1770    11.3080 hc         1 T4O       0.054033
     50 H18         -7.1210    -7.7120    16.1230 hn         1 T4O       0.326500
     51 H19         -5.0570    -8.8710    19.0500 h1         1 T4O       0.054533
     52 H20         -5.6060    -8.9880    17.3660 h1         1 T4O       0.054533
     53 H21         -4.1250    -8.0870    17.7680 h1         1 T4O       0.054533
     54 Cl          -9.3890   -15.4410    16.2020 cl         1 T4O      -0.184000
@<TRIPOS>BOND
     1     1     2 1   
     2     1    30 1   
     3     1    32 1   
     4     2    33 1   
     5     2    34 1   
     6     2    35 1   
     7     3    30 2   
     8     4     5 ar  
     9     4     7 ar  
    10     4    54 1   
    11     5     6 ar  
    12     5    36 1   
    13     6    16 ar  
    14     6    37 1   
    15     7     8 1   
    16     7    15 ar  
    17     8     9 1   
    18     9    10 ar  
    19     9    14 ar  
    20    10    11 ar  
    21    11    12 ar  
    22    11    38 1   
    23    12    13 ar  
    24    12    39 1   
    25    13    14 ar  
    26    13    40 1   
    27    14    41 1   
    28    15    16 ar  
    29    15    42 1   
    30    16    17 1   
    31    17    18 ar  
    32    17    19 ar  
    33    18    26 ar  
    34    18    43 1   
    35    19    20 ar  
    36    19    23 1   
    37    20    21 1   
    38    20    24 ar  
    39    21    22 1   
    40    21    44 1   
    41    22    23 2   
    42    22    45 1   
    43    23    46 1   
    44    24    25 1   
    45    24    26 ar  
    46    25    47 1   
    47    25    48 1   
    48    25    49 1   
    49    26    27 1   
    50    27    28 2   
    51    27    29 1   
    52    29    30 1   
    53    29    50 1   
    54    30    31 2   
    55    32    51 1   
    56    32    52 1   
    57    32    53 1   
@<TRIPOS>SUBSTRUCTURE
     1 T4O         1 TEMP              0 ****  ****    0 ROOT
