@<TRIPOS>MOLECULE
T4O
   54    57     1     0     0
SMALL
abcg2


@<TRIPOS>ATOM
      1 N           -6.1680    -6.9510    18.1630 n3         1 T4O      -0.785500
      2 C           -7.4150    -6.4230    18.7330 c3         1 T4O       0.187100
      3 O           -5.8470    -4.8680    16.8410 o          1 T4O      -0.537500
      4 C9          -8.4660   -13.9210    15.4050 ca         1 T4O       0.125000
      5 C8          -9.4630   -13.4350    14.5680 ca         1 T4O      -0.099000
      6 C7          -9.2680   -12.2510    13.8740 ca         1 T4O      -0.090000
      7 C10         -7.2690   -13.2240    15.5280 ca         1 T4O       0.119100
      8 O3          -6.2460   -13.7300    16.3080 os         1 T4O      -0.363400
      9 C11         -6.0800   -13.2240    17.5710 ca         1 T4O       0.574300
     10 N2          -6.9530   -12.3510    18.0320 nb         1 T4O      -0.735000
     11 C15         -6.7600   -11.8750    19.2720 ca         1 T4O       0.361900
     12 C14         -5.7010   -12.2590    20.0740 ca         1 T4O      -0.194000
     13 C13         -4.7930   -13.1880    19.5640 ca         1 T4O      -0.046000
     14 C12         -4.9760   -13.6870    18.2880 ca         1 T4O      -0.166000
     15 C16         -7.0730   -12.0520    14.8200 ca         1 T4O      -0.096000
     16 C6          -8.0720   -11.5320    13.9940 cp         1 T4O      -0.017000
     17 C5          -7.8780   -10.2270    13.3310 cp         1 T4O      -0.002000
     18 C4          -7.2270    -9.2070    14.0040 ca         1 T4O      -0.101000
     19 C17         -8.3410    -9.9420    12.0270 ca         1 T4O      -0.055800
     20 C20         -8.1250    -8.6400    11.4920 ca         1 T4O      -0.067200
     21 N3          -8.6550    -8.6320    10.2220 na         1 T4O      -0.223700
     22 C19         -9.1730    -9.8670     9.9350 cc         1 T4O      -0.145100
     23 C18         -9.0040   -10.7000    11.0110 cd         1 T4O      -0.248200
     24 C21         -7.4710    -7.6060    12.1660 ca         1 T4O      -0.011300
     25 C22         -7.3240    -6.2600    11.5150 c3         1 T4O      -0.052800
     26 C3          -7.0140    -7.9270    13.4500 ca         1 T4O      -0.150600
     27 C2          -6.2420    -6.9470    14.2580 c          1 T4O       0.655700
     28 O2          -5.4060    -6.1800    13.8060 o          1 T4O      -0.543100
     29 N1          -6.5200    -6.9890    15.6140 ns         1 T4O      -0.619300
     30 S           -5.5790    -6.2790    16.8130 s6         1 T4O       1.343900
     31 O1          -4.2280    -6.7230    16.6130 o          1 T4O      -0.537500
     32 C1          -5.9630    -8.3940    18.3560 c3         1 T4O       0.187100
     33 H1          -7.4150    -6.6640    19.7960 h1         1 T4O       0.054533
     34 H2          -7.4510    -5.3460    18.6130 h1         1 T4O       0.054533
     35 H3          -8.2920    -6.8790    18.2650 h1         1 T4O       0.054533
     36 H4         -10.3960   -13.9760    14.4790 ha         1 T4O       0.132000
     37 H5         -10.0690   -11.8680    13.2580 ha         1 T4O       0.126000
     38 H6          -7.4910   -11.1560    19.6230 h4         1 T4O       0.017100
     39 H7          -5.5870   -11.8450    21.0660 ha         1 T4O       0.128000
     40 H8          -3.9500   -13.5170    20.1580 ha         1 T4O       0.126000
     41 H9          -4.3010   -14.4060    17.8450 ha         1 T4O       0.144000
     42 H10         -6.1250   -11.5440    14.9310 ha         1 T4O       0.132000
     43 H11         -6.8560    -9.4050    15.0000 ha         1 T4O       0.113000
     44 H12         -8.6360    -7.8560     9.5810 hn         1 T4O       0.355000
     45 H13         -9.6250   -10.0600     8.9760 h4         1 T4O       0.217000
     46 H14         -9.3140   -11.7300    11.0590 ha         1 T4O       0.211000
     47 H15         -8.2190    -6.0150    10.9390 hc         1 T4O       0.054033
     48 H16         -7.1580    -5.4730    12.2450 hc         1 T4O       0.054033
     49 H17         -6.4770    -6.2530    10.8230 hc         1 T4O       0.054033
     50 H18         -7.3270    -7.5070    15.9340 hn         1 T4O       0.326500
     51 H19         -5.9670    -8.5910    19.4270 h1         1 T4O       0.054533
     52 H20         -6.7630    -8.9730    17.8850 h1         1 T4O       0.054533
     53 H21         -5.0050    -8.6930    17.9430 h1         1 T4O       0.054533
     54 CL          -8.7160   -15.3870    16.3100 cl         1 T4O      -0.184000
@<TRIPOS>BOND
     1     1     2 1   
     2     1    30 1   
     3     1    32 1   
     4     2    33 1   
     5     2    34 1   
     6     2    35 1   
     7     3    30 2   
     8     4     5 ar  
     9     4     7 ar  
    10     4    54 1   
    11     5     6 ar  
    12     5    36 1   
    13     6    16 ar  
    14     6    37 1   
    15     7     8 1   
    16     7    15 ar  
    17     8     9 1   
    18     9    10 ar  
    19     9    14 ar  
    20    10    11 ar  
    21    11    12 ar  
    22    11    38 1   
    23    12    13 ar  
    24    12    39 1   
    25    13    14 ar  
    26    13    40 1   
    27    14    41 1   
    28    15    16 ar  
    29    15    42 1   
    30    16    17 1   
    31    17    18 ar  
    32    17    19 ar  
    33    18    26 ar  
    34    18    43 1   
    35    19    20 ar  
    36    19    23 1   
    37    20    21 1   
    38    20    24 ar  
    39    21    22 1   
    40    21    44 1   
    41    22    23 2   
    42    22    45 1   
    43    23    46 1   
    44    24    25 1   
    45    24    26 ar  
    46    25    47 1   
    47    25    48 1   
    48    25    49 1   
    49    26    27 1   
    50    27    28 2   
    51    27    29 1   
    52    29    30 1   
    53    29    50 1   
    54    30    31 2   
    55    32    51 1   
    56    32    52 1   
    57    32    53 1   
@<TRIPOS>SUBSTRUCTURE
     1 T4O         1 TEMP              0 ****  ****    0 ROOT
