@<TRIPOS>MOLECULE
T4Q
   38    39     1     0     0
SMALL
abcg2


@<TRIPOS>ATOM
      1 N1          13.9500    19.1950    -0.1660 n1         1 T4Q      -0.425000
      2 C2          18.5630    19.9120    -0.1200 c3         1 T4Q       0.108000
      3 C3          17.2820    19.2890     1.9350 c          1 T4Q       0.616700
      4 C4          17.8360    20.5030     2.6260 ca         1 T4Q      -0.094600
      5 C6          19.5380    21.5040     4.0080 ca         1 T4Q      -0.085000
      6 C8          17.5620    22.7540     3.4600 ca         1 T4Q      -0.068000
      7 C11         16.7580    23.1300    -0.1090 ca         1 T4Q      -0.091000
      8 C15         15.4190    21.2370    -0.7400 ca         1 T4Q       0.023000
      9 N           17.6460    19.1030     0.6570 ns         1 T4Q      -0.507900
     10 C           20.0850    18.0080    -0.8150 c3         1 T4Q       0.083600
     11 O           16.5450    18.5300     2.5430 o          1 T4Q      -0.566100
     12 C1          19.9890    19.3740    -0.1520 c3         1 T4Q      -0.093400
     13 C10         15.9370    22.0710     0.2570 ca         1 T4Q      -0.095000
     14 C12         17.0700    23.3430    -1.4430 ca         1 T4Q      -0.098000
     15 C13         16.5470    22.5180    -2.4310 ca         1 T4Q      -0.104000
     16 C14         15.7180    21.4680    -2.0830 ca         1 T4Q      -0.086000
     17 C5          19.0630    20.4270     3.2720 ca         1 T4Q      -0.096000
     18 C7          18.7880    22.6660     4.1060 ca         1 T4Q      -0.113000
     19 C9          17.0880    21.6780     2.7190 ca         1 T4Q      -0.114000
     20 S           21.8310    17.4820    -0.8360 sh         1 T4Q      -0.458800
     21 S1          15.4890    21.7930     1.9490 ss         1 T4Q       0.067000
     22 H1          18.1690    19.9790    -1.1360 h1         1 T4Q       0.055200
     23 H2          18.5700    20.9270     0.2750 h1         1 T4Q       0.055200
     24 H3          20.4940    21.4310     4.5100 ha         1 T4Q       0.121000
     25 H4          16.9720    23.6580     3.5280 ha         1 T4Q       0.129000
     26 H5          17.1570    23.7880     0.6510 ha         1 T4Q       0.128000
     27 H6          17.2700    18.2770     0.2140 hn         1 T4Q       0.318500
     28 H7          19.5000    17.2690    -0.2680 h1         1 T4Q       0.059700
     29 H8          19.7080    18.0570    -1.8370 h1         1 T4Q       0.059700
     30 H9          20.6030    20.0930    -0.7010 hc         1 T4Q       0.062700
     31 H10         20.3860    19.3260     0.8650 hc         1 T4Q       0.062700
     32 H11         17.7170    24.1670    -1.7120 ha         1 T4Q       0.121000
     33 H12         16.7870    22.6910    -3.4710 ha         1 T4Q       0.123000
     34 H13         15.3100    20.8140    -2.8430 ha         1 T4Q       0.128000
     35 H14         19.6490    19.5190     3.2110 ha         1 T4Q       0.125000
     36 H15         19.1530    23.5060     4.6810 ha         1 T4Q       0.120000
     37 H16         21.6520    16.2850    -1.4060 hs         1 T4Q       0.216800
     38 C16         14.6050    20.1140    -0.4000 cg         1 T4Q       0.316000
@<TRIPOS>BOND
     1     1    38 3   
     2     2     9 1   
     3     2    12 1   
     4     2    22 1   
     5     2    23 1   
     6     3     4 1   
     7     3     9 1   
     8     3    11 2   
     9     4    17 ar  
    10     4    19 ar  
    11     5    17 ar  
    12     5    18 ar  
    13     5    24 1   
    14     6    18 ar  
    15     6    19 ar  
    16     6    25 1   
    17     7    13 ar  
    18     7    14 ar  
    19     7    26 1   
    20     8    13 ar  
    21     8    16 ar  
    22     8    38 1   
    23     9    27 1   
    24    10    12 1   
    25    10    20 1   
    26    10    28 1   
    27    10    29 1   
    28    12    30 1   
    29    12    31 1   
    30    13    21 1   
    31    14    15 ar  
    32    14    32 1   
    33    15    16 ar  
    34    15    33 1   
    35    16    34 1   
    36    17    35 1   
    37    18    36 1   
    38    19    21 1   
    39    20    37 1   
@<TRIPOS>SUBSTRUCTURE
     1 T4Q         1 TEMP              0 ****  ****    0 ROOT
