@<TRIPOS>MOLECULE
T4Q
   38    39     1     0     0
SMALL
No Charge or Current Charge


@<TRIPOS>ATOM
      1 N1          13.0940    19.6830     0.0550 n1         1 T4Q      -0.425000
      2 C2          18.9180    20.0330    -0.1230 c3         1 T4Q       0.108000
      3 C3          17.1920    19.5280     1.6720 c          1 T4Q       0.616700
      4 C4          17.7050    20.6540     2.5390 ca         1 T4Q      -0.094600
      5 C6          19.4850    21.5900     3.9330 ca         1 T4Q      -0.085000
      6 C8          17.3930    22.8010     3.6710 ca         1 T4Q      -0.068000
      7 C11         16.7940    22.8900    -0.0370 ca         1 T4Q      -0.091000
      8 C15         15.0740    21.2500    -0.5970 ca         1 T4Q       0.023000
      9 N           17.8840    19.2130     0.5210 ns         1 T4Q      -0.507900
     10 C           20.3360    18.0220    -0.9050 c3         1 T4Q       0.083600
     11 O           16.2230    18.8570     1.9910 o          1 T4Q      -0.566100
     12 C1          20.3030    19.3540    -0.1310 c3         1 T4Q      -0.093400
     13 C10         15.7400    22.0460     0.3650 ca         1 T4Q      -0.095000
     14 C12         17.1930    22.9370    -1.3820 ca         1 T4Q      -0.098000
     15 C13         16.5400    22.1410    -2.3360 ca         1 T4Q      -0.104000
     16 C14         15.4830    21.3020    -1.9450 ca         1 T4Q      -0.086000
     17 C5          18.9970    20.5700     3.1010 ca         1 T4Q      -0.096000
     18 C7          18.6820    22.7060     4.2190 ca         1 T4Q      -0.113000
     19 C9          16.9000    21.7830     2.8330 ca         1 T4Q      -0.114000
     20 S           22.0240    17.2610    -0.9590 sh         1 T4Q      -0.458800
     21 S1          15.2760    21.9890     2.1010 ss         1 T4Q       0.067000
     22 H1          18.6060    20.2240    -1.1580 h1         1 T4Q       0.055200
     23 H2          18.9950    21.0090     0.3740 h1         1 T4Q       0.055200
     24 H3          20.4820    21.5130     4.3630 ha         1 T4Q       0.121000
     25 H4          16.7790    23.6730     3.8880 ha         1 T4Q       0.129000
     26 H5          17.3080    23.5110     0.6940 ha         1 T4Q       0.128000
     27 H6          17.5150    18.4240     0.0040 hn         1 T4Q       0.318500
     28 H7          19.6520    17.3040    -0.4350 h1         1 T4Q       0.059700
     29 H8          20.0000    18.1890    -1.9370 h1         1 T4Q       0.059700
     30 H9          21.0250    20.0440    -0.5840 hc         1 T4Q       0.062700
     31 H10         20.6370    19.1800     0.8980 hc         1 T4Q       0.062700
     32 H11         18.0100    23.5890    -1.6850 ha         1 T4Q       0.121000
     33 H12         16.8500    22.1760    -3.3790 ha         1 T4Q       0.123000
     34 H13         14.9800    20.6920    -2.6930 ha         1 T4Q       0.128000
     35 H14         19.6180    19.6980     2.9090 ha         1 T4Q       0.125000
     36 H15         19.0590    23.4970     4.8640 ha         1 T4Q       0.120000
     37 H16         21.6710    16.1680    -1.6820 hs         1 T4Q       0.216800
     38 C16         13.9850    20.3820    -0.2290 cg         1 T4Q       0.316000
@<TRIPOS>BOND
     1     1    38 3   
     2     2     9 1   
     3     2    12 1   
     4     2    22 1   
     5     2    23 1   
     6     3     4 1   
     7     3     9 1   
     8     3    11 2   
     9     4    17 ar  
    10     4    19 ar  
    11     5    17 ar  
    12     5    18 ar  
    13     5    24 1   
    14     6    18 ar  
    15     6    19 ar  
    16     6    25 1   
    17     7    13 ar  
    18     7    14 ar  
    19     7    26 1   
    20     8    13 ar  
    21     8    16 ar  
    22     8    38 1   
    23     9    27 1   
    24    10    12 1   
    25    10    20 1   
    26    10    28 1   
    27    10    29 1   
    28    12    30 1   
    29    12    31 1   
    30    13    21 1   
    31    14    15 ar  
    32    14    32 1   
    33    15    16 ar  
    34    15    33 1   
    35    16    34 1   
    36    17    35 1   
    37    18    36 1   
    38    19    21 1   
    39    20    37 1   
@<TRIPOS>SUBSTRUCTURE
     1 T4Q         1 TEMP              0 ****  ****    0 ROOT
