@<TRIPOS>MOLECULE
T4R
    9     9     1     0     0
SMALL
abcg2


@<TRIPOS>ATOM
      1 N1           1.0340    -2.1820   -51.9220 na         1 T4R       0.002800
      2 N            0.0400    -1.9030   -52.7870 nc         1 T4R      -0.505800
      3 C            1.1130    -3.5010   -51.6440 cc         1 T4R       0.114000
      4 C1           0.1150    -4.1300   -52.3620 cd         1 T4R      -0.187000
      5 C2          -0.5190    -3.0820   -53.0550 cd         1 T4R       0.238900
      6 I            2.5290    -4.2810   -50.3450 i          1 T4R      -0.240000
      7 H1           1.6230    -1.4440   -51.5670 hn         1 T4R       0.381000
      8 H2          -0.1120    -5.1820   -52.3760 ha         1 T4R       0.154000
      9 H3          -1.3560    -3.1410   -53.7330 h4         1 T4R       0.041100
@<TRIPOS>BOND
     1     1     2 1   
     2     1     3 1   
     3     1     7 1   
     4     2     5 2   
     5     3     4 2   
     6     3     6 1   
     7     4     5 1   
     8     4     8 1   
     9     5     9 1   
@<TRIPOS>SUBSTRUCTURE
     1 T4R         1 TEMP              0 ****  ****    0 ROOT
