@<TRIPOS>MOLECULE
T4R
    9     9     1     0     0
SMALL
No Charge or Current Charge


@<TRIPOS>ATOM
      1 N1           1.0230    -2.1530   -51.9390 na         1 T4R       0.002800
      2 N           -0.0090    -1.8780   -52.8340 nc         1 T4R      -0.505800
      3 C            1.1310    -3.5020   -51.6280 cc         1 T4R       0.114000
      4 C1           0.1400    -4.0980   -52.3450 cd         1 T4R      -0.187000
      5 C2          -0.5230    -3.0770   -53.0590 cd         1 T4R       0.238900
      6 I            2.5440    -4.3910   -50.3180 i          1 T4R      -0.240000
      7 H1           1.6190    -1.4170   -51.5700 hn         1 T4R       0.381000
      8 H2          -0.0950    -5.1550   -52.3640 ha         1 T4R       0.154000
      9 H3          -1.3630    -3.1760   -53.7340 h4         1 T4R       0.041100
@<TRIPOS>BOND
     1     1     2 1   
     2     1     3 1   
     3     1     7 1   
     4     2     5 2   
     5     3     4 2   
     6     3     6 1   
     7     4     5 1   
     8     4     8 1   
     9     5     9 1   
@<TRIPOS>SUBSTRUCTURE
     1 T4R         1 TEMP              0 ****  ****    0 ROOT
