@<TRIPOS>MOLECULE
T4T
   50    49     1     0     0
SMALL
abcg2


@<TRIPOS>ATOM
      1 C04         10.7890     4.1920    -7.6780 c3         1 T4T      -0.079400
      2 C05         10.7120     5.3170    -8.7020 c3         1 T4T      -0.074400
      3 C06          9.5770     4.1380    -6.7540 c3         1 T4T      -0.069400
      4 C07         11.9200     5.3560    -9.6300 c3         1 T4T      -0.074400
      5 C08          9.5730     2.9450    -5.8020 c3         1 T4T      -0.073400
      6 C09         11.9120     6.5110   -10.6280 c3         1 T4T      -0.071400
      7 C10         10.6780     2.9670    -4.7530 c3         1 T4T      -0.076400
      8 C11         10.7810     6.4520   -11.6480 c3         1 T4T      -0.076400
      9 C12         10.6530     1.7420    -3.8480 c3         1 T4T      -0.075400
     10 C13         10.8550     7.5630   -12.6870 c3         1 T4T      -0.076400
     11 C14         11.7430     1.7720    -2.7880 c3         1 T4T      -0.076400
     12 C15          9.7240     7.5100   -13.7060 c3         1 T4T      -0.075400
     13 C16         11.7940     0.5450    -1.8880 c3         1 T4T       0.087600
     14 C17          9.8030     8.6250   -14.7390 c3         1 T4T      -0.088100
     15 C18         13.5620    -0.6670    -3.6920 c3         1 T4T      -0.052400
     16 C19         14.7750    -0.1530    -2.8740 c          1 T4T       0.717000
     17 O02         14.9650    -0.6580    -1.7550 o          1 T4T      -0.721000
     18 O03         15.4700     0.7070    -3.4490 o          1 T4T      -0.721000
     19 S01         12.0700    -1.0360    -2.7400 ss         1 T4T      -0.515000
     20 H042        10.8820     3.2330    -8.2000 hc         1 T4T       0.044700
     21 H041        11.7060     4.3050    -7.0900 hc         1 T4T       0.044700
     22 H052        10.6240     6.2790    -8.1830 hc         1 T4T       0.031700
     23 H051         9.7930     5.2050    -9.2860 hc         1 T4T       0.031700
     24 H061         9.5170     5.0680    -6.1760 hc         1 T4T       0.028200
     25 H062         8.6710     4.1050    -7.3660 hc         1 T4T       0.028200
     26 H071        11.9890     4.4080   -10.1740 hc         1 T4T       0.041700
     27 H072        12.8280     5.4200    -9.0220 hc         1 T4T       0.041700
     28 H082         8.6060     2.8980    -5.2920 hc         1 T4T       0.034200
     29 H081         9.6480     2.0220    -6.3880 hc         1 T4T       0.034200
     30 H092        12.8670     6.5230   -11.1630 hc         1 T4T       0.034700
     31 H091        11.8610     7.4600   -10.0830 hc         1 T4T       0.034700
     32 H101        11.6580     3.0250    -5.2370 hc         1 T4T       0.037700
     33 H102        10.5850     3.8760    -4.1480 hc         1 T4T       0.037700
     34 H112         9.8130     6.5050   -11.1400 hc         1 T4T       0.037700
     35 H111        10.8030     5.4800   -12.1550 hc         1 T4T       0.037700
     36 H122         9.6750     1.6620    -3.3600 hc         1 T4T       0.039200
     37 H121        10.7600     0.8410    -4.4600 hc         1 T4T       0.039200
     38 H132        11.8170     7.5100   -13.2100 hc         1 T4T       0.034700
     39 H131        10.8410     8.5350   -12.1800 hc         1 T4T       0.034700
     40 H142        12.7170     1.9190    -3.2630 hc         1 T4T       0.048700
     41 H141        11.5970     2.6430    -2.1420 hc         1 T4T       0.048700
     42 H152         8.7650     7.5630   -13.1820 hc         1 T4T       0.036200
     43 H151         9.7390     6.5400   -14.2120 hc         1 T4T       0.036200
     44 H161        10.8450     0.4200    -1.3620 h1         1 T4T       0.060200
     45 H162        12.5700     0.6690    -1.1310 h1         1 T4T       0.060200
     46 H171         8.9770     8.5710   -15.4500 hc         1 T4T       0.028700
     47 H172         9.7660     9.6070   -14.2640 hc         1 T4T       0.028700
     48 H173        10.7320     8.5710   -15.3100 hc         1 T4T       0.028700
     49 H182        13.8330    -1.6170    -4.1630 h1         1 T4T       0.043200
     50 H181        13.3220     0.0230    -4.5020 h1         1 T4T       0.043200
@<TRIPOS>BOND
     1     1     2 1   
     2     1     3 1   
     3     1    20 1   
     4     1    21 1   
     5     2     4 1   
     6     2    22 1   
     7     2    23 1   
     8     3     5 1   
     9     3    24 1   
    10     3    25 1   
    11     4     6 1   
    12     4    26 1   
    13     4    27 1   
    14     5     7 1   
    15     5    28 1   
    16     5    29 1   
    17     6     8 1   
    18     6    30 1   
    19     6    31 1   
    20     7     9 1   
    21     7    32 1   
    22     7    33 1   
    23     8    10 1   
    24     8    34 1   
    25     8    35 1   
    26     9    11 1   
    27     9    36 1   
    28     9    37 1   
    29    10    12 1   
    30    10    38 1   
    31    10    39 1   
    32    11    13 1   
    33    11    40 1   
    34    11    41 1   
    35    12    14 1   
    36    12    42 1   
    37    12    43 1   
    38    13    19 1   
    39    13    44 1   
    40    13    45 1   
    41    14    46 1   
    42    14    47 1   
    43    14    48 1   
    44    15    16 1   
    45    15    19 1   
    46    15    49 1   
    47    15    50 1   
    48    16    17 1   
    49    16    18 1   
@<TRIPOS>SUBSTRUCTURE
     1 T4T         1 TEMP              0 ****  ****    0 ROOT
