@<TRIPOS>MOLECULE
T4T
   50    49     1     0     0
SMALL
No Charge or Current Charge


@<TRIPOS>ATOM
      1 C04         10.7880     4.1710    -7.8500 c3         1 T4T      -0.079400
      2 C05         10.6760     5.3340    -8.8600 c3         1 T4T      -0.074400
      3 C06          9.5830     4.0950    -6.8820 c3         1 T4T      -0.069400
      4 C07         11.8810     5.4090    -9.8270 c3         1 T4T      -0.074400
      5 C08          9.6140     2.8910    -5.9110 c3         1 T4T      -0.073400
      6 C09         11.8490     6.6140   -10.7980 c3         1 T4T      -0.071400
      7 C10         10.7720     2.9230    -4.8860 c3         1 T4T      -0.076400
      8 C11         10.6910     6.5810   -11.8240 c3         1 T4T      -0.076400
      9 C12         10.7180     1.7520    -3.8790 c3         1 T4T      -0.075400
     10 C13         10.7450     7.7520   -12.8300 c3         1 T4T      -0.076400
     11 C14         11.8770     1.7820    -2.8560 c3         1 T4T      -0.076400
     12 C15          9.5880     7.7240   -13.8530 c3         1 T4T      -0.075400
     13 C16         11.8160     0.6570    -1.7970 c3         1 T4T       0.087600
     14 C17          9.6420     8.8910   -14.8570 c3         1 T4T      -0.088100
     15 C18         13.7810    -1.0280    -3.0760 c3         1 T4T      -0.052400
     16 C19         14.8110    -0.8220    -1.9310 c          1 T4T       0.717000
     17 O02         15.1150    -1.7880    -1.2430 o          1 T4T      -0.721000
     18 O03         15.2940     0.2910    -1.7790 o          1 T4T      -0.721000
     19 S01         11.9850    -1.0390    -2.5400 ss         1 T4T      -0.515000
     20 H042        10.8700     3.2240    -8.3980 hc         1 T4T       0.044700
     21 H041        11.7140     4.2910    -7.2750 hc         1 T4T       0.044700
     22 H052        10.5940     6.2800    -8.3110 hc         1 T4T       0.031700
     23 H051         9.7500     5.2130    -9.4340 hc         1 T4T       0.031700
     24 H061         9.5230     5.0240    -6.3020 hc         1 T4T       0.028200
     25 H062         8.6610     4.0360    -7.4730 hc         1 T4T       0.028200
     26 H071        11.9410     4.4800   -10.4070 hc         1 T4T       0.041700
     27 H072        12.8030     5.4690    -9.2370 hc         1 T4T       0.041700
     28 H082         8.6630     2.8640    -5.3660 hc         1 T4T       0.034200
     29 H081         9.6680     1.9610    -6.4910 hc         1 T4T       0.034200
     30 H092        12.8010     6.6410   -11.3440 hc         1 T4T       0.034700
     31 H091        11.7950     7.5440   -10.2180 hc         1 T4T       0.034700
     32 H101        11.7320     2.8880    -5.4140 hc         1 T4T       0.037700
     33 H102        10.7410     3.8720    -4.3370 hc         1 T4T       0.037700
     34 H112         9.7310     6.6160   -11.2950 hc         1 T4T       0.037700
     35 H111        10.7230     5.6320   -12.3730 hc         1 T4T       0.037700
     36 H122         9.7620     1.7830    -3.3410 hc         1 T4T       0.039200
     37 H121        10.7420     0.8070    -4.4350 hc         1 T4T       0.039200
     38 H132        11.7010     7.7220   -13.3670 hc         1 T4T       0.034700
     39 H131        10.7160     8.7010   -12.2800 hc         1 T4T       0.034700
     40 H142        12.8360     1.7390    -3.3850 hc         1 T4T       0.048700
     41 H141        11.8570     2.7440    -2.3300 hc         1 T4T       0.048700
     42 H152         8.6300     7.7560   -13.3190 hc         1 T4T       0.036200
     43 H151         9.6150     6.7770   -14.4060 hc         1 T4T       0.036200
     44 H161        10.8570     0.7150    -1.2660 h1         1 T4T       0.060200
     45 H162        12.6140     0.8060    -1.0570 h1         1 T4T       0.060200
     46 H171         8.8030     8.8290   -15.5600 hc         1 T4T       0.028700
     47 H172         9.5810     9.8540   -14.3360 hc         1 T4T       0.028700
     48 H173        10.5750     8.8660   -15.4320 hc         1 T4T       0.028700
     49 H182        14.0060    -1.9870    -3.5600 h1         1 T4T       0.043200
     50 H181        13.9300    -0.2400    -3.8240 h1         1 T4T       0.043200
@<TRIPOS>BOND
     1     1     2 1   
     2     1     3 1   
     3     1    20 1   
     4     1    21 1   
     5     2     4 1   
     6     2    22 1   
     7     2    23 1   
     8     3     5 1   
     9     3    24 1   
    10     3    25 1   
    11     4     6 1   
    12     4    26 1   
    13     4    27 1   
    14     5     7 1   
    15     5    28 1   
    16     5    29 1   
    17     6     8 1   
    18     6    30 1   
    19     6    31 1   
    20     7     9 1   
    21     7    32 1   
    22     7    33 1   
    23     8    10 1   
    24     8    34 1   
    25     8    35 1   
    26     9    11 1   
    27     9    36 1   
    28     9    37 1   
    29    10    12 1   
    30    10    38 1   
    31    10    39 1   
    32    11    13 1   
    33    11    40 1   
    34    11    41 1   
    35    12    14 1   
    36    12    42 1   
    37    12    43 1   
    38    13    19 1   
    39    13    44 1   
    40    13    45 1   
    41    14    46 1   
    42    14    47 1   
    43    14    48 1   
    44    15    16 1   
    45    15    19 1   
    46    15    49 1   
    47    15    50 1   
    48    16    17 1   
    49    16    18 1   
@<TRIPOS>SUBSTRUCTURE
     1 T4T         1 TEMP              0 ****  ****    0 ROOT
