@<TRIPOS>MOLECULE
T4U
   27    28     1     0     0
SMALL
No Charge or Current Charge


@<TRIPOS>ATOM
      1 C10        116.5590   132.3430   143.7880 ca         1 T4U       0.124000
      2 C11        118.7770   131.3530   143.4430 ca         1 T4U      -0.054300
      3 C01        120.6670   131.9250   145.1400 c3         1 T4U      -0.088100
      4 C02        117.0060   131.0810   141.7700 ca         1 T4U      -0.103000
      5 C03        116.1250   131.8350   142.5590 ca         1 T4U      -0.103000
      6 C04        119.2360   129.9890   141.3070 c3         1 T4U      -0.033100
      7 C05        119.6630   128.6560   141.9590 c3         1 T4U       0.167800
      8 C06        117.8690   132.1060   144.2290 ca         1 T4U      -0.103000
      9 C07        120.4780   129.5770   144.1650 c3         1 T4U       0.168800
     10 C08        120.2270   131.0890   143.9110 c3         1 T4U      -0.022400
     11 C09        118.3260   130.8330   142.2010 ca         1 T4U      -0.074300
     12 N13        120.7720   128.8250   142.9240 n7         1 T4U      -0.877400
     13 Cl12       115.4550   133.2830   144.7860 cl         1 T4U      -0.221000
     14 H012       121.7350   131.7780   145.3410 hc         1 T4U       0.037700
     15 H013       120.5100   132.9960   144.9610 hc         1 T4U       0.037700
     16 H011       120.1140   131.6300   146.0400 hc         1 T4U       0.037700
     17 H021       116.6550   130.6860   140.8200 ha         1 T4U       0.114000
     18 H031       115.1090   132.0200   142.2210 ha         1 T4U       0.130000
     19 H042       120.1240   130.5580   141.0070 hc         1 T4U       0.056200
     20 H041       118.7180   129.7470   140.3720 hc         1 T4U       0.056200
     21 H052       118.7920   128.1840   142.4350 h1         1 T4U       0.032200
     22 H051       119.9940   127.9840   141.1550 h1         1 T4U       0.032200
     23 H061       118.1570   132.5170   145.1910 ha         1 T4U       0.129000
     24 H072       119.6180   129.1460   144.6970 h1         1 T4U       0.033200
     25 H071       121.3440   129.4810   144.8340 h1         1 T4U       0.033200
     26 H081       120.9050   131.4010   143.1070 hc         1 T4U       0.073700
     27 H131       121.0750   127.8830   143.2040 hn         1 T4U       0.415000
@<TRIPOS>BOND
     1     1     5 ar  
     2     1     8 ar  
     3     1    13 1   
     4     2     8 ar  
     5     2    10 1   
     6     2    11 ar  
     7     3    10 1   
     8     3    14 1   
     9     3    15 1   
    10     3    16 1   
    11     4     5 ar  
    12     4    11 ar  
    13     4    17 1   
    14     5    18 1   
    15     6     7 1   
    16     6    11 1   
    17     6    19 1   
    18     6    20 1   
    19     7    12 1   
    20     7    21 1   
    21     7    22 1   
    22     8    23 1   
    23     9    10 1   
    24     9    12 1   
    25     9    24 1   
    26     9    25 1   
    27    10    26 1   
    28    12    27 1   
@<TRIPOS>SUBSTRUCTURE
     1 T4U         1 TEMP              0 ****  ****    0 ROOT
