@<TRIPOS>MOLECULE
T4U
   27    28     1     0     0
SMALL
abcg2


@<TRIPOS>ATOM
      1 C10        116.6060   132.3470   143.7680 ca         1 T4U       0.124000
      2 C11        118.7860   131.3640   143.4260 ca         1 T4U      -0.054300
      3 C01        120.6100   131.8880   145.1410 c3         1 T4U      -0.088100
      4 C02        117.0190   131.0760   141.8040 ca         1 T4U      -0.103000
      5 C03        116.1420   131.8340   142.5710 ca         1 T4U      -0.103000
      6 C04        119.2150   129.9760   141.3320 c3         1 T4U      -0.033100
      7 C05        119.6790   128.6670   141.9810 c3         1 T4U       0.167800
      8 C06        117.9070   132.1230   144.1970 ca         1 T4U      -0.103000
      9 C07        120.4590   129.5930   144.1310 c3         1 T4U       0.168800
     10 C08        120.2070   131.0990   143.8950 c3         1 T4U      -0.022400
     11 C09        118.3310   130.8290   142.2060 ca         1 T4U      -0.074300
     12 N13        120.7880   128.8610   142.9110 n7         1 T4U      -0.877400
     13 CL12       115.5310   133.3090   144.7730 cl         1 T4U      -0.221000
     14 H012       121.6700   131.7320   145.3430 hc         1 T4U       0.037700
     15 H013       120.4440   132.9590   145.0130 hc         1 T4U       0.037700
     16 H011       120.0510   131.5620   146.0220 hc         1 T4U       0.037700
     17 H021       116.6710   130.6650   140.8640 ha         1 T4U       0.114000
     18 H031       115.1280   132.0170   142.2440 ha         1 T4U       0.130000
     19 H042       120.1030   130.5370   141.0220 hc         1 T4U       0.056200
     20 H041       118.6610   129.7290   140.4250 hc         1 T4U       0.056200
     21 H052       118.8110   128.1840   142.4600 h1         1 T4U       0.032200
     22 H051       120.0310   127.9960   141.1950 h1         1 T4U       0.032200
     23 H061       118.2240   132.5460   145.1380 ha         1 T4U       0.129000
     24 H072       119.5840   129.1690   144.6520 h1         1 T4U       0.033200
     25 H071       121.3150   129.4910   144.7990 h1         1 T4U       0.033200
     26 H081       120.8790   131.3970   143.0830 hc         1 T4U       0.073700
     27 H131       121.1560   127.9530   143.1700 hn         1 T4U       0.415000
@<TRIPOS>BOND
     1     1     5 ar  
     2     1     8 ar  
     3     1    13 1   
     4     2     8 ar  
     5     2    10 1   
     6     2    11 ar  
     7     3    10 1   
     8     3    14 1   
     9     3    15 1   
    10     3    16 1   
    11     4     5 ar  
    12     4    11 ar  
    13     4    17 1   
    14     5    18 1   
    15     6     7 1   
    16     6    11 1   
    17     6    19 1   
    18     6    20 1   
    19     7    12 1   
    20     7    21 1   
    21     7    22 1   
    22     8    23 1   
    23     9    10 1   
    24     9    12 1   
    25     9    24 1   
    26     9    25 1   
    27    10    26 1   
    28    12    27 1   
@<TRIPOS>SUBSTRUCTURE
     1 T4U         1 TEMP              0 ****  ****    0 ROOT
