@<TRIPOS>MOLECULE
T4V
   40    42     1     0     0
SMALL
abcg2


@<TRIPOS>ATOM
      1 N1          -0.6970    -0.0330     0.8470 n3         1 T4V      -0.724600
      2 C4           0.3530     0.4790     1.7070 c3         1 T4V       0.216100
      3 C5           1.5940     0.8610     0.9440 ca         1 T4V      -0.071300
      4 C6           2.0140     2.1670     0.9390 ca         1 T4V      -0.109000
      5 C7           3.1760     2.5690     0.2500 ca         1 T4V      -0.111000
      6 C8           3.9210     1.6490    -0.4310 ca         1 T4V      -0.095000
      7 C10          4.3010    -0.6780    -1.1410 ca         1 T4V      -0.104000
      8 C13          1.9920    -1.4850     0.1960 ca         1 T4V      -0.086000
      9 C15         -1.2050     0.9640    -0.0720 c6         1 T4V       0.147300
     10 N           -3.2700    -0.3180    -0.2970 n          1 T4V      -0.416800
     11 C           -4.9940     0.9660    -1.4620 c3         1 T4V      -0.177100
     12 O           -5.4380    -0.6570     0.2240 o          1 T4V      -0.609100
     13 C1          -4.5900    -0.0710    -0.4390 c          1 T4V       0.608100
     14 C11          3.9290    -1.9940    -1.1520 ca         1 T4V      -0.105000
     15 C12          2.7620    -2.3980    -0.4740 ca         1 T4V      -0.115000
     16 C14          2.3540    -0.1150     0.2340 ca         1 T4V      -0.018000
     17 C16         -2.2050     0.3390    -1.0300 c6         1 T4V       0.098500
     18 C2          -2.7800    -1.2840     0.6680 c6         1 T4V       0.098500
     19 C3          -1.7770    -0.6310     1.6030 c6         1 T4V       0.147300
     20 C9           3.5310     0.2880    -0.4520 ca         1 T4V      -0.040000
     21 H6           0.0160     1.3500     2.2920 h1         1 T4V       0.040200
     22 H7           0.5930    -0.3030     2.4350 h1         1 T4V       0.040200
     23 H8           1.4390     2.9100     1.4780 ha         1 T4V       0.109000
     24 H9           3.4730     3.6100     0.2660 ha         1 T4V       0.114000
     25 H10          4.8190     1.9470    -0.9580 ha         1 T4V       0.113000
     26 H11          5.1980    -0.3580    -1.6590 ha         1 T4V       0.111000
     27 H14          1.0850    -1.8100     0.6840 ha         1 T4V       0.128000
     28 H16         -1.6850     1.8040     0.4610 h1         1 T4V       0.041700
     29 H15         -0.3820     1.3810    -0.6540 h1         1 T4V       0.041700
     30 H           -4.5950     1.9510    -1.2190 hc         1 T4V       0.059700
     31 H20         -4.6440     0.7100    -2.4630 hc         1 T4V       0.059700
     32 H1          -6.0790     1.0330    -1.4850 hc         1 T4V       0.059700
     33 H12          4.5260    -2.7250    -1.6810 ha         1 T4V       0.112000
     34 H13          2.4690    -3.4400    -0.4880 ha         1 T4V       0.112000
     35 H18         -2.6020     1.1040    -1.6890 h1         1 T4V       0.060200
     36 H17         -1.6900    -0.3990    -1.6540 h1         1 T4V       0.060200
     37 H3          -3.6130    -1.6920     1.2330 h1         1 T4V       0.060200
     38 H2          -2.2950    -2.1100     0.1360 h1         1 T4V       0.060200
     39 H5          -1.3650    -1.3940     2.2680 h1         1 T4V       0.041700
     40 H4          -2.2990     0.1070     2.2360 h1         1 T4V       0.041700
@<TRIPOS>BOND
     1     1     2 1   
     2     1     9 1   
     3     1    19 1   
     4     2     3 1   
     5     2    21 1   
     6     2    22 1   
     7     3     4 ar  
     8     3    16 ar  
     9     4     5 ar  
    10     4    23 1   
    11     5     6 ar  
    12     5    24 1   
    13     6    20 ar  
    14     6    25 1   
    15     7    14 ar  
    16     7    20 ar  
    17     7    26 1   
    18     8    15 ar  
    19     8    16 ar  
    20     8    27 1   
    21     9    17 1   
    22     9    28 1   
    23     9    29 1   
    24    10    13 1   
    25    10    17 1   
    26    10    18 1   
    27    11    13 1   
    28    11    30 1   
    29    11    31 1   
    30    11    32 1   
    31    12    13 2   
    32    14    15 ar  
    33    14    33 1   
    34    15    34 1   
    35    16    20 ar  
    36    17    35 1   
    37    17    36 1   
    38    18    19 1   
    39    18    37 1   
    40    18    38 1   
    41    19    39 1   
    42    19    40 1   
@<TRIPOS>SUBSTRUCTURE
     1 T4V         1 TEMP              0 ****  ****    0 ROOT
