@<TRIPOS>MOLECULE
T4V
   40    42     1     0     0
SMALL
No Charge or Current Charge


@<TRIPOS>ATOM
      1 N1          -0.6930    -0.0060     0.9890 n3         1 T4V      -0.724600
      2 C4           0.4980     0.3450     1.8020 c3         1 T4V       0.216100
      3 C5           1.7220     0.7450     0.9710 ca         1 T4V      -0.071300
      4 C6           2.1170     2.0990     0.9720 ca         1 T4V      -0.109000
      5 C7           3.2330     2.5220     0.2340 ca         1 T4V      -0.111000
      6 C8           3.9720     1.5960    -0.5140 ca         1 T4V      -0.095000
      7 C10          4.3470    -0.6780    -1.2870 ca         1 T4V      -0.104000
      8 C13          2.1150    -1.5660     0.1680 ca         1 T4V      -0.086000
      9 C15         -1.1770     1.1180     0.1450 c6         1 T4V       0.147300
     10 N           -3.4630    -0.0460    -0.1010 n          1 T4V      -0.416800
     11 C           -5.1290     0.6870    -1.8670 c3         1 T4V      -0.177100
     12 O           -5.4340    -1.1840    -0.4090 o          1 T4V      -0.609100
     13 C1          -4.6940    -0.2730    -0.7570 c          1 T4V       0.608100
     14 C11          3.9860    -2.0340    -1.3170 ca         1 T4V      -0.105000
     15 C12          2.8710    -2.4760    -0.5910 ca         1 T4V      -0.115000
     16 C14          2.4670    -0.1960     0.2100 ca         1 T4V      -0.018000
     17 C16         -2.3560     0.7040    -0.7780 c6         1 T4V       0.098500
     18 C2          -3.0120    -0.9980     0.9620 c6         1 T4V       0.098500
     19 C3          -1.8140    -0.5110     1.8200 c6         1 T4V       0.147300
     20 C9           3.5950     0.2410    -0.5300 ca         1 T4V      -0.040000
     21 H6           0.2470     1.1660     2.4880 h1         1 T4V       0.040200
     22 H7           0.7810    -0.5060     2.4370 h1         1 T4V       0.040200
     23 H8           1.5540     2.8310     1.5480 ha         1 T4V       0.109000
     24 H9           3.5260     3.5700     0.2440 ha         1 T4V       0.114000
     25 H10          4.8360     1.9320    -1.0820 ha         1 T4V       0.113000
     26 H11          5.2130    -0.3420    -1.8540 ha         1 T4V       0.111000
     27 H14          1.2530    -1.9400     0.7130 ha         1 T4V       0.128000
     28 H16         -1.5070     1.9500     0.7840 h1         1 T4V       0.041700
     29 H15         -0.3670     1.5050    -0.4900 h1         1 T4V       0.041700
     30 H           -5.0370     1.7180    -1.5100 hc         1 T4V       0.059700
     31 H20         -4.4020     0.6460    -2.6850 hc         1 T4V       0.059700
     32 H1          -6.1410     0.4760    -2.2300 hc         1 T4V       0.059700
     33 H12          4.5700    -2.7400    -1.9040 ha         1 T4V       0.112000
     34 H13          2.5880    -3.5260    -0.6160 ha         1 T4V       0.112000
     35 H18         -2.7460     1.6190    -1.2440 h1         1 T4V       0.060200
     36 H17         -1.9580     0.0740    -1.5850 h1         1 T4V       0.060200
     37 H3          -3.8500    -1.2210     1.6360 h1         1 T4V       0.060200
     38 H2          -2.7280    -1.9430     0.4770 h1         1 T4V       0.060200
     39 H5          -1.4770    -1.3450     2.4530 h1         1 T4V       0.041700
     40 H4          -2.1670     0.2820     2.4970 h1         1 T4V       0.041700
@<TRIPOS>BOND
     1     1     2 1   
     2     1     9 1   
     3     1    19 1   
     4     2     3 1   
     5     2    21 1   
     6     2    22 1   
     7     3     4 ar  
     8     3    16 ar  
     9     4     5 ar  
    10     4    23 1   
    11     5     6 ar  
    12     5    24 1   
    13     6    20 ar  
    14     6    25 1   
    15     7    14 ar  
    16     7    20 ar  
    17     7    26 1   
    18     8    15 ar  
    19     8    16 ar  
    20     8    27 1   
    21     9    17 1   
    22     9    28 1   
    23     9    29 1   
    24    10    13 1   
    25    10    17 1   
    26    10    18 1   
    27    11    13 1   
    28    11    30 1   
    29    11    31 1   
    30    11    32 1   
    31    12    13 2   
    32    14    15 ar  
    33    14    33 1   
    34    15    34 1   
    35    16    20 ar  
    36    17    35 1   
    37    17    36 1   
    38    18    19 1   
    39    18    37 1   
    40    18    38 1   
    41    19    39 1   
    42    19    40 1   
@<TRIPOS>SUBSTRUCTURE
     1 T4V         1 TEMP              0 ****  ****    0 ROOT
