@<TRIPOS>MOLECULE
T4W
   35    36     1     0     0
SMALL
abcg2


@<TRIPOS>ATOM
      1 C1          19.1320    17.0430     0.8990 c3         1 T4W       0.119000
      2 C2          18.7810    19.4610     1.0910 c          1 T4W       0.618700
      3 C3          18.8860    20.6290     2.0260 ca         1 T4W      -0.105600
      4 C4          20.1280    20.9530     2.5640 ca         1 T4W      -0.101000
      5 C5          20.2770    22.0800     3.3590 ca         1 T4W      -0.087000
      6 C6          19.1810    22.8830     3.6390 ca         1 T4W      -0.109000
      7 C7          17.9340    22.5550     3.1280 ca         1 T4W      -0.066000
      8 N           19.0680    18.2760     1.6490 ns         1 T4W      -0.496900
      9 C           20.4110    16.8840     0.0910 c3         1 T4W       0.061600
     10 O           18.4880    19.6100    -0.0840 o          1 T4W      -0.584100
     11 C10         16.9570    22.6920    -0.2980 ca         1 T4W      -0.101000
     12 C11         16.6840    23.4920    -1.3970 ca         1 T4W      -0.078000
     13 C12         15.3870    23.6430    -1.8700 ca         1 T4W      -0.121000
     14 C13         14.3510    22.9900    -1.2310 ca         1 T4W      -0.064000
     15 C14         14.6140    22.1930    -0.1160 ca         1 T4W      -0.014000
     16 C15         13.5300    21.5430     0.5430 cg         1 T4W       0.326000
     17 C8          17.7880    21.4390     2.3120 ca         1 T4W      -0.114000
     18 C9          15.9240    22.0360     0.3610 ca         1 T4W      -0.064000
     19 N1          12.6490    21.0210     1.0730 n1         1 T4W      -0.450000
     20 S           21.8520    17.0160     1.2030 sh         1 T4W      -0.475800
     21 S1          16.1660    20.9900     1.7570 ss         1 T4W       0.085000
     22 H1          18.2800    16.9780     0.2200 h1         1 T4W       0.065200
     23 H2          19.0360    16.2240     1.6110 h1         1 T4W       0.065200
     24 H3          20.9850    20.3270     2.3480 ha         1 T4W       0.132000
     25 H4          21.2500    22.3270     3.7620 ha         1 T4W       0.121000
     26 H5          19.2920    23.7580     4.2660 ha         1 T4W       0.121000
     27 H6          17.0710    23.1640     3.3630 ha         1 T4W       0.133000
     28 H7          19.2690    18.2430     2.6360 hn         1 T4W       0.327500
     29 H8          20.4060    15.9040    -0.3850 h1         1 T4W       0.073200
     30 H9          20.4760    17.6430    -0.6860 h1         1 T4W       0.073200
     31 H10         17.9760    22.5830     0.0430 ha         1 T4W       0.132000
     32 H11         17.5020    23.9980    -1.8930 ha         1 T4W       0.117000
     33 H12         15.1850    24.2670    -2.7300 ha         1 T4W       0.120000
     34 H13         13.3320    23.0950    -1.5800 ha         1 T4W       0.124000
     35 H14         22.7910    16.7210     0.2980 hs         1 T4W       0.219800
@<TRIPOS>BOND
     1     1     8 1   
     2     1     9 1   
     3     1    22 1   
     4     1    23 1   
     5     2     3 1   
     6     2     8 1   
     7     2    10 2   
     8     3     4 ar  
     9     3    17 ar  
    10     4     5 ar  
    11     4    24 1   
    12     5     6 ar  
    13     5    25 1   
    14     6     7 ar  
    15     6    26 1   
    16     7    17 ar  
    17     7    27 1   
    18     8    28 1   
    19     9    20 1   
    20     9    29 1   
    21     9    30 1   
    22    11    12 ar  
    23    11    18 ar  
    24    11    31 1   
    25    12    13 ar  
    26    12    32 1   
    27    13    14 ar  
    28    13    33 1   
    29    14    15 ar  
    30    14    34 1   
    31    15    16 1   
    32    15    18 ar  
    33    16    19 3   
    34    17    21 1   
    35    18    21 1   
    36    20    35 1   
@<TRIPOS>SUBSTRUCTURE
     1 T4W         1 TEMP              0 ****  ****    0 ROOT
