@<TRIPOS>MOLECULE
T4W
   35    36     1     0     0
SMALL
No Charge or Current Charge


@<TRIPOS>ATOM
      1 C1          19.7780    16.6420     1.4120 c3         1 T4W       0.119000
      2 C2          18.6340    18.8910     1.4170 c          1 T4W       0.618700
      3 C3          18.5880    20.2490     2.1070 ca         1 T4W      -0.105600
      4 C4          19.7150    20.6920     2.8460 ca         1 T4W      -0.101000
      5 C5          19.7200    21.9430     3.4840 ca         1 T4W      -0.087000
      6 C6          18.6010    22.7790     3.3990 ca         1 T4W      -0.109000
      7 C7          17.4750    22.3640     2.6750 ca         1 T4W      -0.066000
      8 N           19.4850    17.9640     1.9800 ns         1 T4W      -0.496900
      9 C           20.7030    16.7160     0.1770 c3         1 T4W       0.061600
     10 O           18.0110    18.6260     0.3980 o          1 T4W      -0.584100
     11 C10         16.9240    22.3800    -0.7680 ca         1 T4W      -0.101000
     12 C11         16.8530    23.4580    -1.6640 ca         1 T4W      -0.078000
     13 C12         15.6690    24.2060    -1.7690 ca         1 T4W      -0.121000
     14 C13         14.5560    23.8740    -0.9780 ca         1 T4W      -0.064000
     15 C14         14.6200    22.7930    -0.0760 ca         1 T4W      -0.014000
     16 C15         13.4650    22.4780     0.7250 cg         1 T4W       0.326000
     17 C8          17.4570    21.1130     2.0270 ca         1 T4W      -0.114000
     18 C9          15.8140    22.0420     0.0320 ca         1 T4W      -0.064000
     19 N1          12.5240    22.2330     1.3710 n1         1 T4W      -0.450000
     20 S           22.3030    17.6160     0.4750 sh         1 T4W      -0.475800
     21 S1          15.9460    20.6570     1.1680 ss         1 T4W       0.085000
     22 H1          18.8370    16.1490     1.1360 h1         1 T4W       0.065200
     23 H2          20.2620    16.0310     2.1850 h1         1 T4W       0.065200
     24 H3          20.6140    20.0830     2.9130 ha         1 T4W       0.132000
     25 H4          20.5980    22.2650     4.0400 ha         1 T4W       0.121000
     26 H5          18.6040    23.7480     3.8940 ha         1 T4W       0.121000
     27 H6          16.6060    23.0170     2.6220 ha         1 T4W       0.133000
     28 H7          19.9660    18.2420     2.8260 hn         1 T4W       0.327500
     29 H8          20.9320    15.6960    -0.1580 h1         1 T4W       0.073200
     30 H9          20.1710    17.2220    -0.6390 h1         1 T4W       0.073200
     31 H10         17.8440    21.8030    -0.6940 ha         1 T4W       0.132000
     32 H11         17.7140    23.7140    -2.2780 ha         1 T4W       0.117000
     33 H12         15.6130    25.0420    -2.4630 ha         1 T4W       0.120000
     34 H13         13.6420    24.4600    -1.0670 ha         1 T4W       0.124000
     35 H14         22.7930    17.4720    -0.7830 hs         1 T4W       0.219800
@<TRIPOS>BOND
     1     1     8 1   
     2     1     9 1   
     3     1    22 1   
     4     1    23 1   
     5     2     3 1   
     6     2     8 1   
     7     2    10 2   
     8     3     4 ar  
     9     3    17 ar  
    10     4     5 ar  
    11     4    24 1   
    12     5     6 ar  
    13     5    25 1   
    14     6     7 ar  
    15     6    26 1   
    16     7    17 ar  
    17     7    27 1   
    18     8    28 1   
    19     9    20 1   
    20     9    29 1   
    21     9    30 1   
    22    11    12 ar  
    23    11    18 ar  
    24    11    31 1   
    25    12    13 ar  
    26    12    32 1   
    27    13    14 ar  
    28    13    33 1   
    29    14    15 ar  
    30    14    34 1   
    31    15    16 1   
    32    15    18 ar  
    33    16    19 3   
    34    17    21 1   
    35    18    21 1   
    36    20    35 1   
@<TRIPOS>SUBSTRUCTURE
     1 T4W         1 TEMP              0 ****  ****    0 ROOT
