@<TRIPOS>MOLECULE
T4X
   29    30     1     0     0
SMALL
No Charge or Current Charge


@<TRIPOS>ATOM
      1 C10         35.0770    -0.9240    -8.5480 ca         1 T4X      -0.091000
      2 C13         36.4900     1.9510    -4.7790 ca         1 T4X      -0.101500
      3 C20         37.2110    -0.3660    -4.7020 ca         1 T4X      -0.101500
      4 C21         36.3770    -0.6640    -5.7930 ca         1 T4X      -0.103000
      5 O01         35.7700    -2.8060   -10.5580 o          1 T4X      -0.714500
      6 C02         34.6890    -2.2500   -10.6980 c          1 T4X       0.705600
      7 O03         33.9460    -2.4780   -11.6420 o          1 T4X      -0.714500
      8 C04         34.2500    -1.2350    -9.6530 ca         1 T4X      -0.105600
      9 C05         33.0040    -0.5760    -9.7660 ca         1 T4X      -0.093000
     10 C06         32.6030     0.3620    -8.8050 ca         1 T4X       0.090100
     11 O07         31.3980     0.9860    -8.9260 oh         1 T4X      -0.551100
     12 C08         33.4340     0.6600    -7.7160 ca         1 T4X      -0.204000
     13 C09         34.6890     0.0220    -7.5640 cp         1 T4X      -0.064000
     14 C11         35.5810     0.3370    -6.4010 cp         1 T4X       0.023000
     15 C12         35.6560     1.6490    -5.8700 ca         1 T4X      -0.103000
     16 C14         37.2770     0.9380    -4.1870 ca         1 T4X       0.060100
     17 O15         38.1210     1.1550    -3.1120 os         1 T4X      -0.405100
     18 C16         38.3000     2.4350    -2.4690 c3         1 T4X       0.499000
     19 F17         38.7830     3.3690    -3.3200 f          1 T4X      -0.114333
     20 F18         39.1840     2.3360    -1.4520 f          1 T4X      -0.114333
     21 F19         37.1460     2.9070    -1.9420 f          1 T4X      -0.114333
     22 H1          36.0450    -1.4120    -8.4560 ha         1 T4X       0.135000
     23 H2          36.5110     2.9740    -4.4160 ha         1 T4X       0.123500
     24 H3          37.8100    -1.1540    -4.2500 ha         1 T4X       0.123500
     25 H4          36.3370    -1.6870    -6.1610 ha         1 T4X       0.129000
     26 H6          32.3430    -0.7910   -10.6020 ha         1 T4X       0.147000
     27 H7          31.2910     1.5990    -8.1680 ho         1 T4X       0.440000
     28 H8          33.1020     1.3790    -6.9730 ha         1 T4X       0.089000
     29 H9          35.0690     2.4470    -6.3180 ha         1 T4X       0.129000
@<TRIPOS>BOND
     1     1     8 ar  
     2     1    13 ar  
     3     1    22 1   
     4     2    15 ar  
     5     2    16 ar  
     6     2    23 1   
     7     3     4 ar  
     8     3    16 ar  
     9     3    24 1   
    10     4    14 ar  
    11     4    25 1   
    12     5     6 1   
    13     6     7 1   
    14     6     8 1   
    15     8     9 ar  
    16     9    10 ar  
    17     9    26 1   
    18    10    11 1   
    19    10    12 ar  
    20    11    27 1   
    21    12    13 ar  
    22    12    28 1   
    23    13    14 1   
    24    14    15 ar  
    25    15    29 1   
    26    16    17 1   
    27    17    18 1   
    28    18    19 1   
    29    18    20 1   
    30    18    21 1   
@<TRIPOS>SUBSTRUCTURE
     1 T4X         1 TEMP              0 ****  ****    0 ROOT
