@<TRIPOS>MOLECULE
T4X
   29    30     1     0     0
SMALL
abcg2


@<TRIPOS>ATOM
      1 C10         35.1740    -0.6970    -8.4870 ca         1 T4X      -0.091000
      2 C13         35.9250     2.0190    -4.4980 ca         1 T4X      -0.101500
      3 C20         37.0360    -0.1270    -4.5880 ca         1 T4X      -0.101500
      4 C21         36.3100    -0.4470    -5.7270 ca         1 T4X      -0.103000
      5 O01         36.2960    -2.1820   -10.5930 o          1 T4X      -0.714500
      6 C02         35.0690    -1.9300   -10.7030 c          1 T4X       0.705600
      7 O03         34.3070    -2.3370   -11.6160 o          1 T4X      -0.714500
      8 C04         34.4420    -1.0510    -9.6190 ca         1 T4X      -0.105600
      9 C05         33.1310    -0.6020    -9.7550 ca         1 T4X      -0.093000
     10 C06         32.5640     0.1970    -8.7670 ca         1 T4X       0.090100
     11 O07         31.2730     0.6110    -8.9510 oh         1 T4X      -0.551100
     12 C08         33.2930     0.5410    -7.6330 ca         1 T4X      -0.204000
     13 C09         34.6090     0.0930    -7.4830 cp         1 T4X      -0.064000
     14 C11         35.3850     0.4500    -6.2730 cp         1 T4X       0.023000
     15 C12         35.2070     1.6860    -5.6390 ca         1 T4X      -0.103000
     16 C14         36.8340     1.1060    -3.9930 ca         1 T4X       0.060100
     17 O15         37.5180     1.4070    -2.7940 os         1 T4X      -0.405100
     18 C16         38.6940     2.0490    -2.8900 c3         1 T4X       0.499000
     19 F17         39.6000     1.3790    -3.6310 f          1 T4X      -0.114333
     20 F18         39.1880     2.1910    -1.6580 f          1 T4X      -0.114333
     21 F19         38.5820     3.2750    -3.4390 f          1 T4X      -0.114333
     22 H1          36.1970    -1.0340    -8.4100 ha         1 T4X       0.135000
     23 H2          35.7840     2.9730    -4.0090 ha         1 T4X       0.123500
     24 H3          37.7410    -0.8270    -4.1600 ha         1 T4X       0.123500
     25 H4          36.4510    -1.4170    -6.1840 ha         1 T4X       0.129000
     26 H6          32.5550    -0.8750   -10.6280 ha         1 T4X       0.147000
     27 H7          30.9980     1.1690    -8.2110 ho         1 T4X       0.440000
     28 H8          32.8220     1.1380    -6.8610 ha         1 T4X       0.089000
     29 H9          34.5100     2.4060    -6.0470 ha         1 T4X       0.129000
@<TRIPOS>BOND
     1     1     8 ar  
     2     1    13 ar  
     3     1    22 1   
     4     2    15 ar  
     5     2    16 ar  
     6     2    23 1   
     7     3     4 ar  
     8     3    16 ar  
     9     3    24 1   
    10     4    14 ar  
    11     4    25 1   
    12     5     6 1   
    13     6     7 1   
    14     6     8 1   
    15     8     9 ar  
    16     9    10 ar  
    17     9    26 1   
    18    10    11 1   
    19    10    12 ar  
    20    11    27 1   
    21    12    13 ar  
    22    12    28 1   
    23    13    14 1   
    24    14    15 ar  
    25    15    29 1   
    26    16    17 1   
    27    17    18 1   
    28    18    19 1   
    29    18    20 1   
    30    18    21 1   
@<TRIPOS>SUBSTRUCTURE
     1 T4X         1 TEMP              0 ****  ****    0 ROOT
