@<TRIPOS>MOLECULE
T4Y
   40    41     1     0     0
SMALL
abcg2


@<TRIPOS>ATOM
      1 N1          -2.8460     0.1020    -0.5740 n          1 T4Y      -0.414800
      2 C4           3.9260     1.9110     0.3610 ca         1 T4Y      -0.117000
      3 C5           2.7960     1.3620     0.9550 ca         1 T4Y      -0.104000
      4 C6           2.3760     0.0700     0.6600 ca         1 T4Y      -0.088300
      5 C7           1.1450    -0.4920     1.3240 c3         1 T4Y       0.220100
      6 C8          -0.9710    -1.5710     0.9390 c3         1 T4Y       0.180800
      7 C10         -3.1400    -1.3150    -0.4290 c3         1 T4Y       0.110000
      8 C13         -3.7040     1.0770    -0.2010 c          1 T4Y       0.601100
      9 N            0.0470    -0.6900     0.3910 n3         1 T4Y      -0.733600
     10 O           -3.4150     2.2660    -0.2890 o          1 T4Y      -0.609100
     11 C1           3.1130    -0.7020    -0.2520 ca         1 T4Y      -0.049300
     12 C11         -1.5580     0.4730    -1.1320 c3         1 T4Y       0.097000
     13 C12         -0.4540     0.5820    -0.0890 c3         1 T4Y       0.148800
     14 C14         -5.0530     0.6520     0.3320 c3         1 T4Y      -0.177100
     15 C2           4.2420    -0.1410    -0.8420 ca         1 T4Y      -0.118000
     16 C3           4.6510     1.1530    -0.5450 ca         1 T4Y      -0.104000
     17 C9          -1.9010    -2.1500    -0.1270 c3         1 T4Y      -0.093400
     18 H5           4.2310     2.9210     0.6030 ha         1 T4Y       0.113000
     19 H6           2.2240     1.9530     1.6610 ha         1 T4Y       0.109000
     20 H8           1.3930    -1.4620     1.7640 h1         1 T4Y       0.036200
     21 H7           0.8560     0.1620     2.1640 h1         1 T4Y       0.036200
     22 H9          -0.4490    -2.4040     1.4120 h1         1 T4Y       0.031200
     23 H10         -1.5630    -1.0880     1.7360 h1         1 T4Y       0.031200
     24 H13         -3.8430    -1.4480     0.3910 h1         1 T4Y       0.039700
     25 H14         -3.6240    -1.7040    -1.3310 h1         1 T4Y       0.039700
     26 H1           1.6950    -2.1470    -0.9700 hc         1 T4Y       0.045033
     27 H            3.3850    -2.5510    -1.3140 hc         1 T4Y       0.045033
     28 H2           2.7290    -2.7460     0.3080 hc         1 T4Y       0.045033
     29 H15         -1.2810    -0.2460    -1.9040 h1         1 T4Y       0.064200
     30 H16         -1.6580     1.4370    -1.6260 h1         1 T4Y       0.064200
     31 H18         -0.8190     1.2150     0.7390 h1         1 T4Y       0.047200
     32 H17          0.3770     1.1210    -0.5480 h1         1 T4Y       0.047200
     33 H22         -4.9600     0.1840     1.3130 hc         1 T4Y       0.059033
     34 H19         -5.6840     1.5310     0.4370 hc         1 T4Y       0.059033
     35 H20         -5.5540    -0.0620    -0.3220 hc         1 T4Y       0.059033
     36 H3           4.8170    -0.7330    -1.5460 ha         1 T4Y       0.109000
     37 H4           5.5330     1.5630    -1.0200 ha         1 T4Y       0.111000
     38 H11         -1.3190    -2.3390    -1.0310 hc         1 T4Y       0.054200
     39 H12         -2.2610    -3.1250     0.2080 hc         1 T4Y       0.054200
     40 C            2.7120    -2.1100    -0.5810 c3         1 T4Y      -0.048800
@<TRIPOS>BOND
     1     1     7 1   
     2     1     8 1   
     3     1    12 1   
     4     2     3 ar  
     5     2    16 ar  
     6     2    18 1   
     7     3     4 ar  
     8     3    19 1   
     9     4     5 1   
    10     4    11 ar  
    11     5     9 1   
    12     5    20 1   
    13     5    21 1   
    14     6     9 1   
    15     6    17 1   
    16     6    22 1   
    17     6    23 1   
    18     7    17 1   
    19     7    24 1   
    20     7    25 1   
    21     8    10 2   
    22     8    14 1   
    23     9    13 1   
    24    11    15 ar  
    25    11    40 1   
    26    12    13 1   
    27    12    29 1   
    28    12    30 1   
    29    13    31 1   
    30    13    32 1   
    31    14    33 1   
    32    14    34 1   
    33    14    35 1   
    34    15    16 ar  
    35    15    36 1   
    36    16    37 1   
    37    17    38 1   
    38    17    39 1   
    39    26    40 1   
    40    27    40 1   
    41    28    40 1   
@<TRIPOS>SUBSTRUCTURE
     1 T4Y         1 TEMP              0 ****  ****    0 ROOT
