@<TRIPOS>MOLECULE
T4Y
   40    41     1     0     0
SMALL
No Charge or Current Charge


@<TRIPOS>ATOM
      1 N1          -2.9110     0.1770    -0.5320 n          1 T4Y      -0.414800
      2 C4           3.8770     1.9530     0.4960 ca         1 T4Y      -0.117000
      3 C5           2.7920     1.2670     1.0660 ca         1 T4Y      -0.104000
      4 C6           2.4750    -0.0450     0.6550 ca         1 T4Y      -0.088300
      5 C7           1.2830    -0.7560     1.3040 c3         1 T4Y       0.220100
      6 C8          -0.9260    -1.7810     1.0130 c3         1 T4Y       0.180800
      7 C10         -3.2320    -1.1760    -0.0090 c3         1 T4Y       0.110000
      8 C13         -3.8810     1.2110    -0.5200 c          1 T4Y       0.601100
      9 N            0.0890    -0.8720     0.4260 n3         1 T4Y      -0.733600
     10 O           -3.6180     2.3370    -0.9250 o          1 T4Y      -0.609100
     11 C1           3.2660    -0.6730    -0.3400 ca         1 T4Y      -0.049300
     12 C11         -1.5470     0.4270    -1.0760 c3         1 T4Y       0.097000
     13 C12         -0.4330     0.4580    -0.0040 c3         1 T4Y       0.148800
     14 C14         -5.2890     0.9090     0.0070 c3         1 T4Y      -0.177100
     15 C2           4.3530     0.0260    -0.9050 ca         1 T4Y      -0.118000
     16 C3           4.6580     1.3320    -0.4890 ca         1 T4Y      -0.104000
     17 C9          -2.0720    -2.1930     0.0640 c3         1 T4Y      -0.093400
     18 H5           4.1120     2.9650     0.8190 ha         1 T4Y       0.113000
     19 H6           2.1930     1.7590     1.8280 ha         1 T4Y       0.109000
     20 H8           1.6160    -1.7560     1.6150 h1         1 T4Y       0.036200
     21 H7           1.0100    -0.2260     2.2270 h1         1 T4Y       0.036200
     22 H9          -0.4250    -2.7100     1.3180 h1         1 T4Y       0.031200
     23 H10         -1.3530    -1.3410     1.9250 h1         1 T4Y       0.031200
     24 H13         -3.6430    -1.0680     1.0030 h1         1 T4Y       0.039700
     25 H14         -4.0190    -1.6070    -0.6410 h1         1 T4Y       0.039700
     26 H1           1.9700    -2.1540    -1.2690 hc         1 T4Y       0.045033
     27 H            3.6870    -2.4280    -1.5730 hc         1 T4Y       0.045033
     28 H2           3.0080    -2.8060     0.0120 hc         1 T4Y       0.045033
     29 H15         -1.3050    -0.3300    -1.8320 h1         1 T4Y       0.064200
     30 H16         -1.5270     1.3900    -1.6000 h1         1 T4Y       0.064200
     31 H18         -0.7950     1.0270     0.8630 h1         1 T4Y       0.047200
     32 H17          0.3890     1.0400    -0.4400 h1         1 T4Y       0.047200
     33 H22         -5.2200     0.5660     1.0450 hc         1 T4Y       0.059033
     34 H19         -5.9600     1.7710    -0.0760 hc         1 T4Y       0.059033
     35 H20         -5.6960     0.0340    -0.5120 hc         1 T4Y       0.059033
     36 H3           4.9670    -0.4440    -1.6700 ha         1 T4Y       0.109000
     37 H4           5.4990     1.8620    -0.9320 ha         1 T4Y       0.111000
     38 H11         -1.6790    -2.4090    -0.9360 hc         1 T4Y       0.054200
     39 H12         -2.4900    -3.1360     0.4350 hc         1 T4Y       0.054200
     40 C            2.9670    -2.0910    -0.8180 c3         1 T4Y      -0.048800
@<TRIPOS>BOND
     1     1     7 1   
     2     1     8 1   
     3     1    12 1   
     4     2     3 ar  
     5     2    16 ar  
     6     2    18 1   
     7     3     4 ar  
     8     3    19 1   
     9     4     5 1   
    10     4    11 ar  
    11     5     9 1   
    12     5    20 1   
    13     5    21 1   
    14     6     9 1   
    15     6    17 1   
    16     6    22 1   
    17     6    23 1   
    18     7    17 1   
    19     7    24 1   
    20     7    25 1   
    21     8    10 2   
    22     8    14 1   
    23     9    13 1   
    24    11    15 ar  
    25    11    40 1   
    26    12    13 1   
    27    12    29 1   
    28    12    30 1   
    29    13    31 1   
    30    13    32 1   
    31    14    33 1   
    32    14    34 1   
    33    14    35 1   
    34    15    16 ar  
    35    15    36 1   
    36    16    37 1   
    37    17    38 1   
    38    17    39 1   
    39    26    40 1   
    40    27    40 1   
    41    28    40 1   
@<TRIPOS>SUBSTRUCTURE
     1 T4Y         1 TEMP              0 ****  ****    0 ROOT
