@<TRIPOS>MOLECULE
T4Z
   30    30     1     0     0
SMALL
No Charge or Current Charge


@<TRIPOS>ATOM
      1 C1          20.4830    19.2780    -0.4190 c3         1 T4Z      -0.083400
      2 C2          19.8270    18.7720    -1.7220 c3         1 T4Z       0.097000
      3 C4          15.9690    19.0450    -1.6280 c3         1 T4Z      -0.053400
      4 C6          17.0930    21.1740     0.5160 ca         1 T4Z      -0.056500
      5 C7          18.0740    21.8110     1.2960 ca         1 T4Z      -0.119500
      6 C9          17.6630    20.2360     3.1050 ca         1 T4Z      -0.119500
      7 N           18.4180    19.1720    -1.8200 ns         1 T4Z      -0.507900
      8 C           19.9840    18.5800     0.8620 c3         1 T4Z       0.086600
      9 O           17.4620    17.1720    -1.2740 o          1 T4Z      -0.569100
     10 C10         16.6830    19.5960     2.3260 ca         1 T4Z      -0.056500
     11 C3          17.3370    18.3560    -1.5510 c          1 T4Z       0.603100
     12 C5          16.4050    20.0550     1.0250 ca         1 T4Z      -0.127000
     13 C8          18.3600    21.3380     2.5870 ca         1 T4Z       0.126000
     14 S           20.5270    16.8140     1.0080 sh         1 T4Z      -0.452800
     15 S1          15.1790    19.1980     0.0430 ss         1 T4Z      -0.144000
     16 Cl          19.5960    22.1280     3.5560 cl         1 T4Z      -0.199000
     17 H1          21.5690    19.1450    -0.4910 hc         1 T4Z       0.052700
     18 H2          20.3070    20.3570    -0.3290 hc         1 T4Z       0.052700
     19 H3          19.9170    17.6800    -1.7900 h1         1 T4Z       0.066200
     20 H4          20.3620    19.2020    -2.5790 h1         1 T4Z       0.066200
     21 H5          16.0830    20.0390    -2.0750 h1         1 T4Z       0.083700
     22 H6          15.3230    18.4480    -2.2820 h1         1 T4Z       0.083700
     23 H8          18.6100    22.6700     0.9020 ha         1 T4Z       0.132500
     24 H9          17.8840    19.8750     4.1060 ha         1 T4Z       0.132500
     25 H10         18.2140    20.1350    -2.0600 hn         1 T4Z       0.305500
     26 H11         20.3670    19.1220     1.7370 h1         1 T4Z       0.060200
     27 H12         18.8880    18.6140     0.9010 h1         1 T4Z       0.060200
     28 H13         16.1490    18.7360     2.7270 ha         1 T4Z       0.133500
     29 H14         19.9060    16.5650     2.1870 hs         1 T4Z       0.212800
     30 H7          16.8700    21.5560    -0.4770 ha         1 T4Z       0.133500
@<TRIPOS>BOND
     1     1     2 1   
     2     1     8 1   
     3     1    17 1   
     4     1    18 1   
     5     2     7 1   
     6     2    19 1   
     7     2    20 1   
     8     3    11 1   
     9     3    15 1   
    10     3    21 1   
    11     3    22 1   
    12     4     5 ar  
    13     4    12 ar  
    14     4    30 1   
    15     5    13 ar  
    16     5    23 1   
    17     6    10 ar  
    18     6    13 ar  
    19     6    24 1   
    20     7    11 1   
    21     7    25 1   
    22     8    14 1   
    23     8    26 1   
    24     8    27 1   
    25     9    11 2   
    26    10    12 ar  
    27    10    28 1   
    28    12    15 1   
    29    13    16 1   
    30    14    29 1   
@<TRIPOS>SUBSTRUCTURE
     1 T4Z         1 TEMP              0 ****  ****    0 ROOT
