@<TRIPOS>MOLECULE
T4Z
   30    30     1     0     0
SMALL
abcg2


@<TRIPOS>ATOM
      1 C1          20.7770    19.0460    -0.8780 c3         1 T4Z      -0.083400
      2 C2          19.7650    18.2520    -1.6960 c3         1 T4Z       0.097000
      3 C4          16.1250    19.3180    -1.6610 c3         1 T4Z      -0.053400
      4 C6          16.8310    21.2870     0.8570 ca         1 T4Z      -0.056500
      5 C7          17.7530    21.7300     1.7910 ca         1 T4Z      -0.119500
      6 C9          17.4610    19.6810     3.0370 ca         1 T4Z      -0.119500
      7 N           18.4890    18.9280    -1.7830 ns         1 T4Z      -0.507900
      8 C           20.3760    19.2940     0.5660 c3         1 T4Z       0.086600
      9 O           17.1720    17.2780    -0.9570 o          1 T4Z      -0.569100
     10 C10         16.5560    19.2370     2.0840 ca         1 T4Z      -0.056500
     11 C3          17.3110    18.3970    -1.4230 c          1 T4Z       0.603100
     12 C5          16.2390    20.0340     0.9900 ca         1 T4Z      -0.127000
     13 C8          18.0620    20.9170     2.8730 ca         1 T4Z       0.126000
     14 S           20.3210    17.7180     1.4900 sh         1 T4Z      -0.452800
     15 S1          15.0630    19.4460    -0.1980 ss         1 T4Z      -0.144000
     16 CL          19.2410    21.4460     4.0240 cl         1 T4Z      -0.199000
     17 H1          21.7380    18.5260    -0.9190 hc         1 T4Z       0.052700
     18 H2          20.9370    20.0180    -1.3520 hc         1 T4Z       0.052700
     19 H3          19.5990    17.2650    -1.2680 h1         1 T4Z       0.066200
     20 H4          20.1640    18.0980    -2.7010 h1         1 T4Z       0.066200
     21 H5          16.4250    20.3110    -1.9950 h1         1 T4Z       0.083700
     22 H6          15.4930    18.8880    -2.4410 h1         1 T4Z       0.083700
     23 H8          18.2250    22.6960     1.6750 ha         1 T4Z       0.132500
     24 H9          17.7080    19.0550     3.8840 ha         1 T4Z       0.132500
     25 H10         18.4960    19.8620    -2.1630 hn         1 T4Z       0.305500
     26 H11         21.0990    19.9550     1.0420 h1         1 T4Z       0.060200
     27 H12         19.3980    19.7710     0.6170 h1         1 T4Z       0.060200
     28 H13         16.1040    18.2610     2.1940 ha         1 T4Z       0.133500
     29 H14         19.9990    18.2320     2.6820 hs         1 T4Z       0.212800
     30 H7          16.5810    21.9230     0.0170 ha         1 T4Z       0.133500
@<TRIPOS>BOND
     1     1     2 1   
     2     1     8 1   
     3     1    17 1   
     4     1    18 1   
     5     2     7 1   
     6     2    19 1   
     7     2    20 1   
     8     3    11 1   
     9     3    15 1   
    10     3    21 1   
    11     3    22 1   
    12     4     5 ar  
    13     4    12 ar  
    14     4    30 1   
    15     5    13 ar  
    16     5    23 1   
    17     6    10 ar  
    18     6    13 ar  
    19     6    24 1   
    20     7    11 1   
    21     7    25 1   
    22     8    14 1   
    23     8    26 1   
    24     8    27 1   
    25     9    11 2   
    26    10    12 ar  
    27    10    28 1   
    28    12    15 1   
    29    13    16 1   
    30    14    29 1   
@<TRIPOS>SUBSTRUCTURE
     1 T4Z         1 TEMP              0 ****  ****    0 ROOT
