@<TRIPOS>MOLECULE
T50
   41    44     1     0     0
SMALL
bcc


@<TRIPOS>ATOM
      1 N1           0.9930     0.0710    -0.7370 na         1 T50      -0.138300
      2 C2           0.3090     1.0280    -0.0460 cc         1 T50       0.469400
      3 N3           1.0780     1.9570     0.4450 nd         1 T50      -0.546100
      4 C4           3.5580     2.2650     0.3290 ca         1 T50      -0.005300
      5 C5           4.7010     1.6730    -0.1820 ca         1 T50      -0.159000
      6 C6           4.6580     0.4810    -0.9250 ca         1 T50      -0.104000
      7 C7           3.4700    -0.1700    -1.1930 ca         1 T50      -0.138000
      8 C8           2.3180     0.4210    -0.6800 ca         1 T50      -0.060200
      9 C9           2.3500     1.6090     0.0640 ca         1 T50       0.063400
     10 C17         -1.1470     0.9730     0.1350 ca         1 T50      -0.200900
     11 C18         -2.0310     1.2580    -0.8950 ca         1 T50       0.194900
     12 C4A          3.5870     3.5320     1.1250 c3         1 T50      -0.041800
     13 C19         -3.4010     1.2160    -0.7400 ca         1 T50      -0.194500
     14 C20         -3.9090     0.8750     0.5060 ca         1 T50      -0.065000
     15 C21         -3.0670     0.5840     1.5710 ca         1 T50      -0.194500
     16 C22         -1.7060     0.6440     1.3630 ca         1 T50       0.194900
     17 F1          -1.5130     1.5870    -2.0840 f          1 T50      -0.124400
     18 F2          -0.8750     0.3520     2.3660 f          1 T50      -0.124400
     19 C10          0.4450    -1.1090    -1.3790 c3         1 T50       0.113600
     20 C11         -0.4200    -1.9170    -0.4520 ca         1 T50      -0.206300
     21 C12          0.0750    -2.4170     0.7450 ca         1 T50       0.181400
     22 C13         -0.6850    -3.1400     1.6390 ca         1 T50      -0.188500
     23 C14         -2.0120    -3.3910     1.3190 ca         1 T50      -0.067000
     24 C15         -2.5560    -2.9300     0.1310 ca         1 T50      -0.188500
     25 C16         -1.7490    -2.2080    -0.7260 ca         1 T50       0.181400
     26 F3           1.3610    -2.1720     1.0330 f          1 T50      -0.129400
     27 F4          -2.2760    -1.7590    -1.8720 f          1 T50      -0.129400
     28 H5           5.6610     2.1400    -0.0030 ha         1 T50       0.130000
     29 H6           5.5850     0.0630    -1.2960 ha         1 T50       0.129000
     30 H7           3.4500    -1.0850    -1.7700 ha         1 T50       0.134000
     31 H4A1         2.9870     4.3110     0.6530 hc         1 T50       0.047033
     32 H4A2         3.1770     3.3800     2.1250 hc         1 T50       0.047033
     33 H4A3         4.6030     3.9090     1.2310 hc         1 T50       0.047033
     34 H19         -4.0540     1.4450    -1.5710 ha         1 T50       0.158000
     35 H20         -4.9800     0.8330     0.6480 ha         1 T50       0.141000
     36 H21         -3.4610     0.3120     2.5410 ha         1 T50       0.158000
     37 H101        -0.1050    -0.8190    -2.2720 h1         1 T50       0.076200
     38 H102         1.2850    -1.7110    -1.7240 h1         1 T50       0.076200
     39 H13         -0.2490    -3.5020     2.5600 ha         1 T50       0.159000
     40 H14         -2.6280    -3.9560     2.0050 ha         1 T50       0.143000
     41 H15         -3.5880    -3.1240    -0.1280 ha         1 T50       0.159000
@<TRIPOS>BOND
     1     1     2 1   
     2     1     8 1   
     3     1    19 1   
     4     2     3 2   
     5     2    10 1   
     6     3     9 1   
     7     4     5 ar  
     8     4     9 ar  
     9     4    12 1   
    10     5     6 ar  
    11     5    28 1   
    12     6     7 ar  
    13     6    29 1   
    14     7     8 ar  
    15     7    30 1   
    16     8     9 ar  
    17    10    11 ar  
    18    10    16 ar  
    19    11    13 ar  
    20    11    17 1   
    21    12    31 1   
    22    12    32 1   
    23    12    33 1   
    24    13    14 ar  
    25    13    34 1   
    26    14    15 ar  
    27    14    35 1   
    28    15    16 ar  
    29    15    36 1   
    30    16    18 1   
    31    19    20 1   
    32    19    37 1   
    33    19    38 1   
    34    20    21 ar  
    35    20    25 ar  
    36    21    22 ar  
    37    21    26 1   
    38    22    23 ar  
    39    22    39 1   
    40    23    24 ar  
    41    23    40 1   
    42    24    25 ar  
    43    24    41 1   
    44    25    27 1   
@<TRIPOS>SUBSTRUCTURE
     1 T50         1 TEMP              0 ****  ****    0 ROOT
