@<TRIPOS>MOLECULE
T50
   41    44     1     0     0
SMALL
No Charge or Current Charge


@<TRIPOS>ATOM
      1 N1           1.0160     0.1010    -0.7480 na         1 T50      -0.167600
      2 C2           0.2940     1.0390    -0.0030 cc         1 T50       0.469400
      3 N3           1.1040     1.9770     0.5220 nd         1 T50      -0.546100
      4 C4           3.5960     2.2670     0.3190 ca         1 T50      -0.005300
      5 C5           4.7680     1.7210    -0.2550 ca         1 T50      -0.141000
      6 C6           4.7060     0.5570    -1.0560 ca         1 T50      -0.086000
      7 C7           3.4710    -0.0790    -1.2910 ca         1 T50      -0.120000
      8 C8           2.3270     0.4840    -0.7040 ca         1 T50      -0.060200
      9 C9           2.3740     1.6150     0.0680 ca         1 T50       0.063400
     10 C17         -1.1430     0.9820     0.2080 ca         1 T50      -0.200900
     11 C18         -2.0270     1.1150    -0.8760 ca         1 T50       0.230000
     12 C4A          3.6570     3.5220     1.1780 c3         1 T50      -0.041800
     13 C19         -3.4150     1.0260    -0.6820 ca         1 T50      -0.176500
     14 C20         -3.9340     0.8020     0.6040 ca         1 T50      -0.047000
     15 C21         -3.0550     0.6740     1.6920 ca         1 T50      -0.176500
     16 C22         -1.6680     0.7680     1.4930 ca         1 T50       0.230000
     17 F1          -1.5490     1.3350    -2.1210 f          1 T50      -0.159500
     18 F2          -0.8420     0.6110     2.5510 f          1 T50      -0.159500
     19 C10          0.5360    -1.1520    -1.3680 c3         1 T50       0.142900
     20 C11         -0.4070    -1.9530    -0.4670 ca         1 T50      -0.206300
     21 C12          0.0090    -2.3810     0.8110 ca         1 T50       0.216500
     22 C13         -0.8690    -3.0760     1.6580 ca         1 T50      -0.170500
     23 C14         -2.1780    -3.3600     1.2380 ca         1 T50      -0.049000
     24 C15         -2.5990    -2.9520    -0.0370 ca         1 T50      -0.170500
     25 C16         -1.7200    -2.2600    -0.8840 ca         1 T50       0.216500
     26 F3           1.2640    -2.1260     1.2430 f          1 T50      -0.164500
     27 F4          -2.1580    -1.8800    -2.1050 f          1 T50      -0.164500
     28 H5           5.7300     2.1990    -0.0840 ha         1 T50       0.112000
     29 H6           5.6160     0.1510    -1.4930 ha         1 T50       0.111000
     30 H7           3.4210    -0.9710    -1.9100 ha         1 T50       0.116000
     31 H4A1         3.0540     4.3260     0.7400 hc         1 T50       0.047033
     32 H4A2         3.2730     3.3250     2.1860 hc         1 T50       0.047033
     33 H4A3         4.6830     3.8960     1.2810 hc         1 T50       0.047033
     34 H19         -4.0860     1.1280    -1.5310 ha         1 T50       0.140000
     35 H20         -5.0090     0.7280     0.7560 ha         1 T50       0.123000
     36 H21         -3.4450     0.4950     2.6910 ha         1 T50       0.140000
     37 H101         0.0480    -0.8950    -2.3160 h1         1 T50       0.076200
     38 H102         1.3930    -1.7900    -1.6130 h1         1 T50       0.076200
     39 H13         -0.5310    -3.3920     2.6410 ha         1 T50       0.141000
     40 H14         -2.8600    -3.8960     1.8960 ha         1 T50       0.125000
     41 H15         -3.6090    -3.1710    -0.3730 ha         1 T50       0.141000
@<TRIPOS>BOND
     1     1     2 1   
     2     1     8 1   
     3     1    19 1   
     4     2     3 2   
     5     2    10 1   
     6     3     9 1   
     7     4     5 ar  
     8     4     9 ar  
     9     4    12 1   
    10     5     6 ar  
    11     5    28 1   
    12     6     7 ar  
    13     6    29 1   
    14     7     8 ar  
    15     7    30 1   
    16     8     9 ar  
    17    10    11 ar  
    18    10    16 ar  
    19    11    13 ar  
    20    11    17 1   
    21    12    31 1   
    22    12    32 1   
    23    12    33 1   
    24    13    14 ar  
    25    13    34 1   
    26    14    15 ar  
    27    14    35 1   
    28    15    16 ar  
    29    15    36 1   
    30    16    18 1   
    31    19    20 1   
    32    19    37 1   
    33    19    38 1   
    34    20    21 ar  
    35    20    25 ar  
    36    21    22 ar  
    37    21    26 1   
    38    22    23 ar  
    39    22    39 1   
    40    23    24 ar  
    41    23    40 1   
    42    24    25 ar  
    43    24    41 1   
    44    25    27 1   
@<TRIPOS>SUBSTRUCTURE
     1 T50         1 TEMP              0 ****  ****    0 ROOT
