@<TRIPOS>MOLECULE
T51
   79    83     1     0     0
SMALL
No Charge or Current Charge


@<TRIPOS>ATOM
      1 OAD          8.8580    -3.0990     3.2400 o          1 T51      -0.393500
      2 NBS          8.3650    -3.6410     2.2420 no         1 T51       0.694200
      3 OAE          8.7440    -4.7350     1.8000 o          1 T51      -0.393500
      4 CBM          7.2520    -2.9360     1.5290 ca         1 T51      -0.186200
      5 CAU          6.7830    -1.6850     1.9960 ca         1 T51       0.002000
      6 CAT          6.6580    -3.5120     0.3840 ca         1 T51      -0.031000
      7 CAP          5.6160    -2.8460    -0.2780 ca         1 T51      -0.131000
      8 CBI          5.1530    -1.6050     0.1870 ca         1 T51      -0.049000
      9 CBP          5.7320    -1.0070     1.3330 ca         1 T51      -0.158600
     10 CBG          5.2600     0.3320     1.8700 c          1 T51       0.615700
     11 OAC          5.7650     0.8280     2.8720 o          1 T51      -0.568100
     12 NBD          4.2350     0.9360     1.1540 ns         1 T51      -0.144000
     13 CBN          3.5120     2.1540     1.3210 ca         1 T51      -0.085000
     14 CAO          3.7430     3.0610     2.3800 ca         1 T51      -0.066000
     15 CAI          2.9820     4.2380     2.4810 ca         1 T51      -0.136000
     16 CAJ          1.9870     4.5220     1.5330 ca         1 T51      -0.073000
     17 CAQ          1.7490     3.6280     0.4770 ca         1 T51      -0.182000
     18 CBO          2.5110     2.4440     0.3690 ca         1 T51       0.126100
     19 OBE          2.3120     1.5330    -0.6520 os         1 T51      -0.356100
     20 CBA          1.2630     1.6720    -1.6240 c3         1 T51       0.202900
     21 CBL          1.3060     0.4560    -2.5500 ca         1 T51      -0.062300
     22 CAL          1.8370     0.6060    -3.8480 ca         1 T51      -0.091000
     23 CAH          1.8970    -0.4870    -4.7280 ca         1 T51      -0.105000
     24 CAG          1.4260    -1.7420    -4.3180 ca         1 T51      -0.107000
     25 CAK          0.8970    -1.9050    -3.0270 ca         1 T51      -0.101000
     26 CBK          0.8350    -0.8160    -2.1340 ca         1 T51      -0.107300
     27 CAZ          0.2550    -1.0410    -0.7400 c3         1 T51       0.139300
     28 NBC         -1.1310    -0.5860    -0.6670 ns         1 T51      -0.506900
     29 CBF         -1.8350    -0.4240     0.5040 c          1 T51       0.614700
     30 OAB         -1.3240    -0.6790     1.5870 o          1 T51      -0.612100
     31 CBJ         -3.2580     0.0840     0.3800 ca         1 T51      -0.157600
     32 CAS         -4.0340     0.2690     1.5470 ca         1 T51      -0.074500
     33 CAN         -5.3550     0.7410     1.4680 ca         1 T51      -0.108000
     34 CAR         -3.8470     0.3860    -0.8730 ca         1 T51      -0.074500
     35 CAM         -5.1690     0.8570    -0.9470 ca         1 T51      -0.108000
     36 CBH         -5.9320     1.0380     0.2200 ca         1 T51      -0.060300
     37 CBB         -7.3680     1.5500     0.1290 c3         1 T51       0.210100
     38 NBR         -8.3130     0.5660    -0.4530 n3         1 T51      -0.721600
     39 CAX         -8.4090    -0.7040     0.3350 c6         1 T51       0.129800
     40 CAV         -9.4060    -1.7270    -0.3050 c6         1 T51       0.165800
     41 NBQ        -10.7730    -1.1520    -0.5130 n3         1 T51      -0.717600
     42 CAA        -11.5340    -0.9770     0.7470 c3         1 T51       0.153100
     43 CAW        -10.6610     0.1070    -1.3170 c6         1 T51       0.165800
     44 CAY         -9.6730     1.1440    -0.6840 c6         1 T51       0.129800
     45 H1           7.2350    -1.2330     2.8780 ha         1 T51       0.174000
     46 H2           6.9970    -4.4740     0.0010 ha         1 T51       0.153000
     47 H3           5.1630    -3.2960    -1.1590 ha         1 T51       0.130000
     48 H4           4.3420    -1.1270    -0.3590 ha         1 T51       0.125000
     49 H5           3.9290     0.4080     0.3480 hn         1 T51       0.158000
     50 H6           4.5020     2.8740     3.1330 ha         1 T51       0.127000
     51 H7           3.1650     4.9320     3.2980 ha         1 T51       0.119000
     52 H8           1.4020     5.4350     1.6170 ha         1 T51       0.117000
     53 H9           0.9750     3.8710    -0.2440 ha         1 T51       0.135000
     54 H10          0.2820     1.7300    -1.1350 h1         1 T51       0.057200
     55 H11          1.4000     2.5900    -2.2110 h1         1 T51       0.057200
     56 H12          2.2080     1.5750    -4.1770 ha         1 T51       0.120000
     57 H13          2.3090    -0.3590    -5.7270 ha         1 T51       0.115000
     58 H14          1.4710    -2.5900    -4.9990 ha         1 T51       0.117000
     59 H15          0.5350    -2.8840    -2.7210 ha         1 T51       0.113000
     60 H16          0.2870    -2.1100    -0.4900 h1         1 T51       0.067200
     61 H17          0.8550    -0.5110     0.0110 h1         1 T51       0.067200
     62 H18         -1.6110    -0.3720    -1.5290 hn         1 T51       0.317500
     63 H19         -3.6130     0.0460     2.5260 ha         1 T51       0.124000
     64 H20         -5.9320     0.8720     2.3810 ha         1 T51       0.124000
     65 H21         -3.2960     0.2620    -1.8020 ha         1 T51       0.124000
     66 H22         -5.6080     1.0800    -1.9170 ha         1 T51       0.124000
     67 H23         -7.7080     1.8480     1.1310 h1         1 T51       0.041700
     68 H24         -7.3610     2.4620    -0.4840 h1         1 T51       0.041700
     69 H26         -7.4230    -1.1860     0.4060 h1         1 T51       0.036700
     70 H27         -8.7300    -0.4880     1.3650 h1         1 T51       0.036700
     71 H28         -8.9890    -2.0480    -1.2710 h1         1 T51       0.057950
     72 H29         -9.4550    -2.6250     0.3280 h1         1 T51       0.057950
     73 H31        -11.0390    -0.2670     1.4240 h1         1 T51       0.029700
     74 H32        -12.5440    -0.6010     0.5380 h1         1 T51       0.029700
     75 H33        -11.6330    -1.9360     1.2730 h1         1 T51       0.029700
     76 H34        -10.3010    -0.1310    -2.3290 h1         1 T51       0.057950
     77 H35        -11.6470     0.5780    -1.4400 h1         1 T51       0.057950
     78 H36        -10.0970     1.5060     0.2650 h1         1 T51       0.036700
     79 H37         -9.6050     2.0130    -1.3530 h1         1 T51       0.036700
@<TRIPOS>BOND
     1     1     2 1   
     2     2     3 1   
     3     2     4 1   
     4     4     5 ar  
     5     4     6 ar  
     6     5     9 ar  
     7     5    45 1   
     8     6     7 ar  
     9     6    46 1   
    10     7     8 ar  
    11     7    47 1   
    12     8     9 ar  
    13     8    48 1   
    14     9    10 1   
    15    10    11 2   
    16    10    12 1   
    17    12    13 1   
    18    12    49 1   
    19    13    14 ar  
    20    13    18 ar  
    21    14    15 ar  
    22    14    50 1   
    23    15    16 ar  
    24    15    51 1   
    25    16    17 ar  
    26    16    52 1   
    27    17    18 ar  
    28    17    53 1   
    29    18    19 1   
    30    19    20 1   
    31    20    21 1   
    32    20    54 1   
    33    20    55 1   
    34    21    22 ar  
    35    21    26 ar  
    36    22    23 ar  
    37    22    56 1   
    38    23    24 ar  
    39    23    57 1   
    40    24    25 ar  
    41    24    58 1   
    42    25    26 ar  
    43    25    59 1   
    44    26    27 1   
    45    27    28 1   
    46    27    60 1   
    47    27    61 1   
    48    28    29 1   
    49    28    62 1   
    50    29    30 2   
    51    29    31 1   
    52    31    32 ar  
    53    31    34 ar  
    54    32    33 ar  
    55    32    63 1   
    56    33    36 ar  
    57    33    64 1   
    58    34    35 ar  
    59    34    65 1   
    60    35    36 ar  
    61    35    66 1   
    62    36    37 1   
    63    37    38 1   
    64    37    67 1   
    65    37    68 1   
    66    38    39 1   
    67    38    44 1   
    68    39    40 1   
    69    39    69 1   
    70    39    70 1   
    71    40    41 1   
    72    40    71 1   
    73    40    72 1   
    74    41    42 1   
    75    41    43 1   
    76    42    73 1   
    77    42    74 1   
    78    42    75 1   
    79    43    44 1   
    80    43    76 1   
    81    43    77 1   
    82    44    78 1   
    83    44    79 1   
@<TRIPOS>SUBSTRUCTURE
     1 T51         1 TEMP              0 ****  ****    0 ROOT
