@<TRIPOS>MOLECULE
T51
   79    83     1     0     0
SMALL
abcg2


@<TRIPOS>ATOM
      1 OAD          9.4100    -1.5990     0.6950 o          1 T51      -0.393500
      2 NBS          9.3080    -1.4010    -0.4920 no         1 T51       0.694200
      3 OAE         10.0840    -1.8200    -1.3170 o          1 T51      -0.393500
      4 CBM          8.1780    -0.6090    -0.9610 ca         1 T51      -0.186200
      5 CAU          7.2990    -0.0850    -0.0300 ca         1 T51       0.002000
      6 CAT          8.0200    -0.3990    -2.3230 ca         1 T51      -0.031000
      7 CAP          6.9420     0.3540    -2.7530 ca         1 T51      -0.131000
      8 CBI          6.0390     0.8750    -1.8380 ca         1 T51      -0.049000
      9 CBP          6.2100     0.6540    -0.4740 ca         1 T51      -0.158600
     10 CBG          5.2890     1.2160     0.5630 c          1 T51       0.615700
     11 OAC          5.6810     1.4560     1.6900 o          1 T51      -0.568100
     12 NBD          4.0160     1.4240     0.1550 ns         1 T51      -0.144000
     13 CBN          3.0080     1.9330     0.9970 ca         1 T51      -0.085000
     14 CAO          3.1310     3.1770     1.5940 ca         1 T51      -0.066000
     15 CAI          2.1270     3.6640     2.4200 ca         1 T51      -0.136000
     16 CAJ          0.9890     2.9040     2.6320 ca         1 T51      -0.073000
     17 CAQ          0.8460     1.6580     2.0330 ca         1 T51      -0.182000
     18 CBO          1.8600     1.1590     1.2220 ca         1 T51       0.126100
     19 OBE          1.8360    -0.0410     0.6130 os         1 T51      -0.356100
     20 CBA          0.6800    -0.8380     0.7510 c3         1 T51       0.202900
     21 CBL          0.8580    -2.1270     0.0000 ca         1 T51      -0.062300
     22 CAL          1.7970    -2.2450    -1.0180 ca         1 T51      -0.091000
     23 CAH          1.9390    -3.4320    -1.7260 ca         1 T51      -0.105000
     24 CAG          1.1350    -4.5190    -1.4230 ca         1 T51      -0.107000
     25 CAK          0.1920    -4.4060    -0.4110 ca         1 T51      -0.101000
     26 CBK          0.0410    -3.2250     0.3080 ca         1 T51      -0.107300
     27 CAZ         -1.0040    -3.1650     1.3960 c3         1 T51       0.139300
     28 NBC         -2.0920    -2.2700     1.0600 ns         1 T51      -0.506900
     29 CBF         -2.4740    -1.2170     1.8060 c          1 T51       0.614700
     30 OAB         -1.9480    -0.9320     2.8750 o          1 T51      -0.612100
     31 CBJ         -3.5900    -0.3910     1.2540 ca         1 T51      -0.157600
     32 CAS         -4.2890     0.4350     2.1290 ca         1 T51      -0.074500
     33 CAN         -5.3370     1.2190     1.6720 ca         1 T51      -0.108000
     34 CAR         -3.9480    -0.3910    -0.0950 ca         1 T51      -0.074500
     35 CAM         -4.9920     0.3960    -0.5470 ca         1 T51      -0.108000
     36 CBH         -5.7030     1.2110     0.3310 ca         1 T51      -0.060300
     37 CBB         -6.8280     2.0710    -0.1820 c3         1 T51       0.210100
     38 NBR         -7.7530     1.3110    -0.9940 n3         1 T51      -0.721600
     39 CAX         -8.5310     0.3770    -0.2000 c6         1 T51       0.129800
     40 CAV         -9.4130    -0.4710    -1.1080 c6         1 T51       0.165800
     41 NBQ        -10.2820     0.3080    -1.9730 n3         1 T51      -0.717600
     42 CAA        -11.4410     0.8580    -1.3000 c3         1 T51       0.153100
     43 CAW         -9.5000     1.3000    -2.6910 c6         1 T51       0.165800
     44 CAY         -8.6220     2.1610    -1.7890 c6         1 T51       0.129800
     45 H1           7.4460    -0.2460     1.0280 ha         1 T51       0.174000
     46 H2           8.7190    -0.8050    -3.0400 ha         1 T51       0.153000
     47 H3           6.8060     0.5400    -3.8090 ha         1 T51       0.130000
     48 H4           5.2180     1.4770    -2.2050 ha         1 T51       0.125000
     49 H5           3.7230     1.0350    -0.7280 hn         1 T51       0.158000
     50 H6           4.0110     3.7740     1.4010 ha         1 T51       0.127000
     51 H7           2.2340     4.6350     2.8840 ha         1 T51       0.119000
     52 H8           0.1950     3.2750     3.2670 ha         1 T51       0.117000
     53 H9          -0.0520     1.0860     2.2280 ha         1 T51       0.135000
     54 H10          0.4900    -1.0380     1.8100 h1         1 T51       0.057200
     55 H11         -0.1920    -0.2970     0.3610 h1         1 T51       0.057200
     56 H12          2.4360    -1.4090    -1.2700 ha         1 T51       0.120000
     57 H13          2.6780    -3.4990    -2.5140 ha         1 T51       0.115000
     58 H14          1.2380    -5.4470    -1.9690 ha         1 T51       0.117000
     59 H15         -0.4400    -5.2520    -0.1700 ha         1 T51       0.113000
     60 H16         -1.4030    -4.1680     1.5640 h1         1 T51       0.067200
     61 H17         -0.5740    -2.8390     2.3420 h1         1 T51       0.067200
     62 H18         -2.6350    -2.5190     0.2490 hn         1 T51       0.317500
     63 H19         -4.0230     0.4550     3.1770 ha         1 T51       0.124000
     64 H20         -5.8800     1.8430     2.3720 ha         1 T51       0.124000
     65 H21         -3.4060    -0.9870    -0.8200 ha         1 T51       0.124000
     66 H22         -5.2650     0.3760    -1.5940 ha         1 T51       0.124000
     67 H23         -7.3250     2.5740     0.6640 h1         1 T51       0.041700
     68 H24         -6.4050     2.8660    -0.8040 h1         1 T51       0.041700
     69 H26         -7.8560    -0.2800     0.3530 h1         1 T51       0.036700
     70 H27         -9.1440     0.9060     0.5520 h1         1 T51       0.036700
     71 H28         -8.7630    -1.0870    -1.7380 h1         1 T51       0.057950
     72 H29        -10.0190    -1.1530    -0.5070 h1         1 T51       0.057950
     73 H31        -11.2270     1.5910    -0.5110 h1         1 T51       0.029700
     74 H32        -12.0860     1.3480    -2.0310 h1         1 T51       0.029700
     75 H33        -12.0150     0.0490    -0.8460 h1         1 T51       0.029700
     76 H34         -8.8510     0.7780    -3.4020 h1         1 T51       0.057950
     77 H35        -10.1710     1.9370    -3.2720 h1         1 T51       0.057950
     78 H36         -9.2450     2.8160    -1.1550 h1         1 T51       0.036700
     79 H37         -8.0070     2.8170    -2.4110 h1         1 T51       0.036700
@<TRIPOS>BOND
     1     1     2 1   
     2     2     3 1   
     3     2     4 1   
     4     4     5 ar  
     5     4     6 ar  
     6     5     9 ar  
     7     5    45 1   
     8     6     7 ar  
     9     6    46 1   
    10     7     8 ar  
    11     7    47 1   
    12     8     9 ar  
    13     8    48 1   
    14     9    10 1   
    15    10    11 2   
    16    10    12 1   
    17    12    13 1   
    18    12    49 1   
    19    13    14 ar  
    20    13    18 ar  
    21    14    15 ar  
    22    14    50 1   
    23    15    16 ar  
    24    15    51 1   
    25    16    17 ar  
    26    16    52 1   
    27    17    18 ar  
    28    17    53 1   
    29    18    19 1   
    30    19    20 1   
    31    20    21 1   
    32    20    54 1   
    33    20    55 1   
    34    21    22 ar  
    35    21    26 ar  
    36    22    23 ar  
    37    22    56 1   
    38    23    24 ar  
    39    23    57 1   
    40    24    25 ar  
    41    24    58 1   
    42    25    26 ar  
    43    25    59 1   
    44    26    27 1   
    45    27    28 1   
    46    27    60 1   
    47    27    61 1   
    48    28    29 1   
    49    28    62 1   
    50    29    30 2   
    51    29    31 1   
    52    31    32 ar  
    53    31    34 ar  
    54    32    33 ar  
    55    32    63 1   
    56    33    36 ar  
    57    33    64 1   
    58    34    35 ar  
    59    34    65 1   
    60    35    36 ar  
    61    35    66 1   
    62    36    37 1   
    63    37    38 1   
    64    37    67 1   
    65    37    68 1   
    66    38    39 1   
    67    38    44 1   
    68    39    40 1   
    69    39    69 1   
    70    39    70 1   
    71    40    41 1   
    72    40    71 1   
    73    40    72 1   
    74    41    42 1   
    75    41    43 1   
    76    42    73 1   
    77    42    74 1   
    78    42    75 1   
    79    43    44 1   
    80    43    76 1   
    81    43    77 1   
    82    44    78 1   
    83    44    79 1   
@<TRIPOS>SUBSTRUCTURE
     1 T51         1 TEMP              0 ****  ****    0 ROOT
