@<TRIPOS>MOLECULE
T52
   82    85     1     0     0
SMALL
abcg2


@<TRIPOS>ATOM
      1 C4          34.2580     0.4200    23.4120 ca         1 T52       0.157100
      2 C5          35.8810     1.5710    22.1330 c3         1 T52       0.143900
      3 C6          33.8570     1.5660    24.0740 ca         1 T52      -0.184000
      4 C11         26.9290     2.3820    25.2110 ca         1 T52       0.008600
      5 C7          32.8290     1.5210    25.0130 ca         1 T52       0.012000
      6 C8          32.2140     0.3190    25.2730 ca         1 T52      -0.261500
      7 C9          28.7800     0.8950    25.0330 ca         1 T52       0.225000
      8 C10         27.7330     1.4310    25.7910 ca         1 T52      -0.095000
      9 N1          29.5750    -0.1490    25.5660 nu         1 T52      -0.892100
     10 N2          25.8410     3.0820    25.6820 n          1 T52      -0.288000
     11 C3          32.6050    -0.8560    24.6250 ca         1 T52      -0.053000
     12 N3          26.1880     3.7400    23.6070 n          1 T52      -0.292000
     13 C1          33.4360    -3.1210    23.2040 c3         1 T52       0.141900
     14 C2          33.6250    -0.8140    23.7010 ca         1 T52       0.082100
     15 O1          34.0900    -1.8800    23.0300 os         1 T52      -0.370100
     16 O2          35.2270     0.3670    22.4910 os         1 T52      -0.364100
     17 O3          31.1570    -0.9740    27.2840 o          1 T52      -0.535000
     18 O4          30.7900     1.5090    27.1070 o          1 T52      -0.535000
     19 O7          32.3150     4.7470    21.6790 os         1 T52      -0.346100
     20 C14         26.0490     4.4300    22.3500 c3         1 T52       0.101300
     21 C15         27.1480     2.8030    23.8950 ca         1 T52       0.037600
     22 C16         28.1710     2.2870    23.1310 ca         1 T52      -0.160000
     23 C17         28.9990     1.3310    23.7240 ca         1 T52       0.127100
     24 S1          30.9300     0.2100    26.4680 sy         1 T52       1.150600
     25 C18         30.8070     1.4620    22.1970 ca         1 T52       0.204100
     26 C19         31.3290     0.7710    21.1120 ca         1 T52      -0.260000
     27 C26         32.1760     1.4510    20.2390 ca         1 T52       0.188100
     28 O8          32.6990     0.9200    19.1180 os         1 T52      -0.352100
     29 C27         32.4930    -0.4450    18.7910 c3         1 T52       0.167600
     30 C28         33.4450    -1.3740    19.5230 c3         1 T52      -0.106400
     31 C29         34.9090    -1.0380    19.2600 c3         1 T52      -0.093400
     32 C30         35.8210    -2.0560    19.9150 c3         1 T52       0.095600
     33 N4          37.2520    -1.6910    19.7200 nz         1 T52      -0.972000
     34 C20         31.1110     2.7930    22.4480 ca         1 T52      -0.292000
     35 C21         31.9620     3.4530    21.5640 ca         1 T52       0.211100
     36 C25         32.4970     2.7850    20.4670 ca         1 T52      -0.226000
     37 C22         31.7450     5.5640    22.6910 c3         1 T52       0.157600
     38 C23         32.4600     5.4530    24.0270 c3         1 T52      -0.109400
     39 C24         31.8350     6.3920    25.0500 c3         1 T52      -0.092100
     40 C13         25.3720     3.9280    24.7040 c          1 T52       0.599000
     41 H5          36.6230     1.3060    21.3830 h1         1 T52       0.044033
     42 H6          35.1860     2.2960    21.7020 h1         1 T52       0.044033
     43 H7          36.3890     2.0260    22.9860 h1         1 T52       0.044033
     44 H8          34.3240     2.5180    23.8670 ha         1 T52       0.129000
     45 H9          32.5320     2.4270    25.5220 ha         1 T52       0.149000
     46 H11         27.5710     1.0860    26.8050 ha         1 T52       0.137000
     47 H14         26.0220     3.1900    27.7610 h1         1 T52       0.057700
     48 H13         24.4480     3.6500    27.1000 h1         1 T52       0.057700
     49 H12         24.9080     1.9440    27.1680 h1         1 T52       0.057700
     50 H10         29.0530    -0.9050    26.0000 hn         1 T52       0.501000
     51 H4          32.1060    -1.7880    24.8520 ha         1 T52       0.141000
     52 H2          33.9370    -3.8270    22.5480 h1         1 T52       0.046700
     53 H1          33.5120    -3.4790    24.2340 h1         1 T52       0.046700
     54 H3          32.3810    -3.0640    22.9240 h1         1 T52       0.046700
     55 H15         25.2060     5.1130    22.4130 h1         1 T52       0.055367
     56 H16         26.9480     5.0030    22.1240 h1         1 T52       0.055367
     57 H17         25.8670     3.7240    21.5410 h1         1 T52       0.055367
     58 H18         28.3270     2.6060    22.1090 ha         1 T52       0.142000
     59 H19         31.0540    -0.2660    20.9720 ha         1 T52       0.132000
     60 H29         32.6710    -0.5070    17.7170 h1         1 T52       0.070200
     61 H30         31.4540    -0.7430    18.9600 h1         1 T52       0.070200
     62 H31         33.2300    -2.3900    19.1810 hc         1 T52       0.068700
     63 H32         33.2480    -1.3600    20.5960 hc         1 T52       0.068700
     64 H33         35.1400    -0.0430    19.6470 hc         1 T52       0.067700
     65 H34         35.0970    -1.0180    18.1830 hc         1 T52       0.067700
     66 H35         35.6890    -3.0490    19.4910 hx         1 T52       0.113200
     67 H36         35.6570    -2.1080    20.9880 hx         1 T52       0.113200
     68 H37         37.8780    -2.3860    20.1290 hn         1 T52       0.509667
     69 H39         37.4940    -1.6160    18.7310 hn         1 T52       0.509667
     70 H20         30.7050     3.2870    23.3180 ha         1 T52       0.143000
     71 H28         33.1430     3.3120    19.7750 ha         1 T52       0.141000
     72 H22         31.8320     6.5850    22.3160 h1         1 T52       0.061700
     73 H21         30.6750     5.3570    22.8020 h1         1 T52       0.061700
     74 H23         32.4190     4.4260    24.3980 hc         1 T52       0.046700
     75 H24         33.5170     5.6950    23.8900 hc         1 T52       0.046700
     76 H27         32.3560     6.3330    26.0050 hc         1 T52       0.043033
     77 H25         31.8770     7.4290    24.7140 hc         1 T52       0.043033
     78 H26         30.7880     6.1430    25.2280 hc         1 T52       0.043033
     79 H38         37.4760    -0.7950    20.1540 hn         1 T52       0.509667
     80 C12         25.2770     2.9560    27.0010 c3         1 T52       0.101300
     81 O5          24.4290     4.6910    24.7860 o          1 T52      -0.539000
     82 O6          30.0020     0.7340    23.0230 os         1 T52      -0.236200
@<TRIPOS>BOND
     1     1     3 ar  
     2     1    14 ar  
     3     1    16 1   
     4     2    16 1   
     5     2    41 1   
     6     2    42 1   
     7     2    43 1   
     8     3     5 ar  
     9     3    44 1   
    10     4     8 ar  
    11     4    10 1   
    12     4    21 ar  
    13     5     6 ar  
    14     5    45 1   
    15     6    11 ar  
    16     6    24 1   
    17     7     8 ar  
    18     7     9 1   
    19     7    23 ar  
    20     8    46 1   
    21     9    24 1   
    22     9    50 1   
    23    10    40 1   
    24    10    80 1   
    25    11    14 ar  
    26    11    51 1   
    27    12    20 1   
    28    12    21 1   
    29    12    40 1   
    30    13    15 1   
    31    13    52 1   
    32    13    53 1   
    33    13    54 1   
    34    14    15 1   
    35    17    24 2   
    36    18    24 2   
    37    19    35 1   
    38    19    37 1   
    39    20    55 1   
    40    20    56 1   
    41    20    57 1   
    42    21    22 ar  
    43    22    23 ar  
    44    22    58 1   
    45    23    82 1   
    46    25    26 ar  
    47    25    34 ar  
    48    25    82 1   
    49    26    27 ar  
    50    26    59 1   
    51    27    28 1   
    52    27    36 ar  
    53    28    29 1   
    54    29    30 1   
    55    29    60 1   
    56    29    61 1   
    57    30    31 1   
    58    30    62 1   
    59    30    63 1   
    60    31    32 1   
    61    31    64 1   
    62    31    65 1   
    63    32    33 1   
    64    32    66 1   
    65    32    67 1   
    66    33    68 1   
    67    33    69 1   
    68    33    79 1   
    69    34    35 ar  
    70    34    70 1   
    71    35    36 ar  
    72    36    71 1   
    73    37    38 1   
    74    37    72 1   
    75    37    73 1   
    76    38    39 1   
    77    38    74 1   
    78    38    75 1   
    79    39    76 1   
    80    39    77 1   
    81    39    78 1   
    82    40    81 2   
    83    47    80 1   
    84    48    80 1   
    85    49    80 1   
@<TRIPOS>SUBSTRUCTURE
     1 T52         1 TEMP              0 ****  ****    0 ROOT
