@<TRIPOS>MOLECULE
T52
   82    85     1     0     0
SMALL
No Charge or Current Charge


@<TRIPOS>ATOM
      1 C4          34.2110     0.4150    23.3730 ca         1 T52       0.157100
      2 C5          35.7360     1.7360    21.9410 c3         1 T52       0.143900
      3 C6          33.7990     1.5630    24.0870 ca         1 T52      -0.184000
      4 C11         26.8530     2.4110    25.2450 ca         1 T52       0.008600
      5 C7          32.8070     1.4690    25.0760 ca         1 T52       0.012000
      6 C8          32.2150     0.2260    25.3620 ca         1 T52      -0.261500
      7 C9          28.7450     0.8970    25.2080 ca         1 T52       0.225000
      8 C10         27.5850     1.3830    25.8520 ca         1 T52      -0.095000
      9 N1          29.4780    -0.1030    25.8600 nu         1 T52      -0.892100
     10 N2          25.5330     2.8610    25.5300 n          1 T52      -0.288000
     11 C3          32.6260    -0.9270    24.6620 ca         1 T52      -0.053000
     12 N3          26.0420     3.5800    23.4860 n          1 T52      -0.292000
     13 C1          33.4900    -3.2660    23.1630 c3         1 T52       0.141900
     14 C2          33.6290    -0.8420    23.6690 ca         1 T52       0.082100
     15 O1          34.0680    -1.9610    22.9760 os         1 T52      -0.370100
     16 O2          35.1810     0.4860    22.3860 os         1 T52      -0.364100
     17 O3          31.0960    -1.1750    27.3500 o          1 T52      -0.535000
     18 O4          30.8080     1.3700    27.3440 o          1 T52      -0.535000
     19 O7          32.2590     4.8910    21.5840 os         1 T52      -0.346100
     20 C14         26.0460     4.4280    22.2820 c3         1 T52       0.101300
     21 C15         27.1670     2.8600    23.9700 ca         1 T52       0.037600
     22 C16         28.2300     2.3080    23.2490 ca         1 T52      -0.160000
     23 C17         29.0710     1.3700    23.8970 ca         1 T52       0.127100
     24 S1          30.9540     0.0950    26.6370 sy         1 T52       1.150600
     25 C18         30.8690     1.5100    22.2730 ca         1 T52       0.204100
     26 C19         31.3260     0.8280    21.1390 ca         1 T52      -0.260000
     27 C26         32.0940     1.5050    20.1720 ca         1 T52       0.188100
     28 O8          32.5480     0.9050    19.0130 os         1 T52      -0.352100
     29 C27         32.3860    -0.5000    18.7290 c3         1 T52       0.167600
     30 C28         33.3900    -1.3160    19.5770 c3         1 T52      -0.106400
     31 C29         34.8720    -1.0400    19.2360 c3         1 T52      -0.093400
     32 C30         35.8340    -1.8530    20.1160 c3         1 T52       0.095600
     33 N4          37.2690    -1.5890    19.7370 nz         1 T52      -0.972000
     34 C20         31.1790     2.8690    22.4550 ca         1 T52      -0.292000
     35 C21         31.9450     3.5490    21.4900 ca         1 T52       0.211100
     36 C25         32.3920     2.8610    20.3550 ca         1 T52      -0.226000
     37 C22         31.8760     5.7240    22.6970 c3         1 T52       0.157600
     38 C23         32.8310     5.4540    23.8820 c3         1 T52      -0.109400
     39 C24         32.5290     6.3350    25.1100 c3         1 T52      -0.092100
     40 C13         25.0340     3.6150    24.4590 c          1 T52       0.599000
     41 H5          36.4540     1.5660    21.1290 h1         1 T52       0.044033
     42 H6          34.9480     2.4000    21.5640 h1         1 T52       0.044033
     43 H7          36.2640     2.2430    22.7590 h1         1 T52       0.044033
     44 H8          34.2360     2.5350    23.8870 ha         1 T52       0.129000
     45 H9          32.5010     2.3650    25.6140 ha         1 T52       0.149000
     46 H11         27.2640     0.9720    26.8040 ha         1 T52       0.137000
     47 H14         25.6790     2.7880    27.6390 h1         1 T52       0.057700
     48 H13         24.2840     3.7090    27.0170 h1         1 T52       0.057700
     49 H12         24.2780     1.9220    26.9430 h1         1 T52       0.057700
     50 H10         28.9590    -0.6170    26.5600 hn         1 T52       0.501000
     51 H4          32.1600    -1.8790    24.9030 ha         1 T52       0.141000
     52 H2          33.9760    -3.9950    22.5020 h1         1 T52       0.046700
     53 H1          33.6200    -3.6070    24.1980 h1         1 T52       0.046700
     54 H3          32.4180    -3.2550    22.9260 h1         1 T52       0.046700
     55 H15         25.4340     5.3230    22.4460 h1         1 T52       0.055367
     56 H16         27.0720     4.7390    22.0480 h1         1 T52       0.055367
     57 H17         25.6390     3.8630    21.4340 h1         1 T52       0.055367
     58 H18         28.3900     2.5820    22.2110 ha         1 T52       0.142000
     59 H19         31.0640    -0.2180    21.0290 ha         1 T52       0.132000
     60 H29         32.5890    -0.6920    17.6670 h1         1 T52       0.070200
     61 H30         31.3570    -0.8300    18.9240 h1         1 T52       0.070200
     62 H31         33.1830    -2.3830    19.4280 hc         1 T52       0.068700
     63 H32         33.2200    -1.1130    20.6390 hc         1 T52       0.068700
     64 H33         35.0850     0.0290    19.3660 hc         1 T52       0.067700
     65 H34         35.0520    -1.2800    18.1810 hc         1 T52       0.067700
     66 H35         35.6180    -2.9220    20.0030 hx         1 T52       0.113200
     67 H36         35.6780    -1.5830    21.1670 hx         1 T52       0.113200
     68 H37         37.9410    -2.1180    20.3160 hn         1 T52       0.509667
     69 H39         37.4870    -1.8450    18.7620 hn         1 T52       0.509667
     70 H20         30.8230     3.3740    23.3460 ha         1 T52       0.143000
     71 H28         32.9730     3.3880    19.6050 ha         1 T52       0.141000
     72 H22         31.9690     6.7800    22.4130 h1         1 T52       0.061700
     73 H21         30.8300     5.5560    22.9860 h1         1 T52       0.061700
     74 H23         32.7670     4.4040    24.1830 hc         1 T52       0.046700
     75 H24         33.8640     5.6320    23.5590 hc         1 T52       0.046700
     76 H27         33.2310     6.1120    25.9230 hc         1 T52       0.043033
     77 H25         32.6220     7.3990    24.8590 hc         1 T52       0.043033
     78 H26         31.5110     6.1530    25.4770 hc         1 T52       0.043033
     79 H38         37.5410    -0.6000    19.8360 hn         1 T52       0.509667
     80 C12         24.9050     2.8180    26.8620 c3         1 T52       0.101300
     81 O5          23.9670     4.2100    24.4030 o          1 T52      -0.539000
     82 O6          30.1300     0.8170    23.2050 os         1 T52      -0.236200
@<TRIPOS>BOND
     1     1     3 ar  
     2     1    14 ar  
     3     1    16 1   
     4     2    16 1   
     5     2    41 1   
     6     2    42 1   
     7     2    43 1   
     8     3     5 ar  
     9     3    44 1   
    10     4     8 ar  
    11     4    10 1   
    12     4    21 ar  
    13     5     6 ar  
    14     5    45 1   
    15     6    11 ar  
    16     6    24 1   
    17     7     8 ar  
    18     7     9 1   
    19     7    23 ar  
    20     8    46 1   
    21     9    24 1   
    22     9    50 1   
    23    10    40 1   
    24    10    80 1   
    25    11    14 ar  
    26    11    51 1   
    27    12    20 1   
    28    12    21 1   
    29    12    40 1   
    30    13    15 1   
    31    13    52 1   
    32    13    53 1   
    33    13    54 1   
    34    14    15 1   
    35    17    24 2   
    36    18    24 2   
    37    19    35 1   
    38    19    37 1   
    39    20    55 1   
    40    20    56 1   
    41    20    57 1   
    42    21    22 ar  
    43    22    23 ar  
    44    22    58 1   
    45    23    82 1   
    46    25    26 ar  
    47    25    34 ar  
    48    25    82 1   
    49    26    27 ar  
    50    26    59 1   
    51    27    28 1   
    52    27    36 ar  
    53    28    29 1   
    54    29    30 1   
    55    29    60 1   
    56    29    61 1   
    57    30    31 1   
    58    30    62 1   
    59    30    63 1   
    60    31    32 1   
    61    31    64 1   
    62    31    65 1   
    63    32    33 1   
    64    32    66 1   
    65    32    67 1   
    66    33    68 1   
    67    33    69 1   
    68    33    79 1   
    69    34    35 ar  
    70    34    70 1   
    71    35    36 ar  
    72    36    71 1   
    73    37    38 1   
    74    37    72 1   
    75    37    73 1   
    76    38    39 1   
    77    38    74 1   
    78    38    75 1   
    79    39    76 1   
    80    39    77 1   
    81    39    78 1   
    82    40    81 2   
    83    47    80 1   
    84    48    80 1   
    85    49    80 1   
@<TRIPOS>SUBSTRUCTURE
     1 T52         1 TEMP              0 ****  ****    0 ROOT
