@<TRIPOS>MOLECULE
T53
   79    83     1     0     0
SMALL
bcc


@<TRIPOS>ATOM
      1 OAD          8.2990    -4.7660    -1.8970 o          1 T53      -0.203000
      2 NBR          8.5000    -3.7130    -1.3400 no         1 T53       0.314200
      3 OAE          9.4840    -3.4710    -0.6830 o          1 T53      -0.203000
      4 CBM          7.4880    -2.6710    -1.4700 ca         1 T53      -0.186200
      5 CAU          7.7190    -1.4390    -0.8820 ca         1 T53      -0.015000
      6 CAM          6.3300    -2.9410    -2.1850 ca         1 T53      -0.046000
      7 CAI          5.3820    -1.9410    -2.3060 ca         1 T53      -0.147000
      8 CAL          5.5880    -0.7040    -1.7150 ca         1 T53      -0.064000
      9 CBL          6.7510    -0.4490    -0.9920 ca         1 T53      -0.162600
     10 CBG          7.0450     0.8770    -0.3580 c          1 T53       0.687700
     11 OAC          8.1930     1.2580    -0.2120 o          1 T53      -0.575100
     12 NBD          5.9490     1.5660     0.0260 ns         1 T53      -0.458100
     13 CBN          5.8540     2.8570     0.5550 ca         1 T53       0.043600
     14 CAP          6.9270     3.6790     0.8740 ca         1 T53      -0.120000
     15 CAF          6.7030     4.9560     1.3790 ca         1 T53      -0.133000
     16 CAG          5.4140     5.4170     1.5730 ca         1 T53      -0.115000
     17 CAS          4.3280     4.6040     1.2630 ca         1 T53      -0.187000
     18 CBO          4.5420     3.3320     0.7590 ca         1 T53       0.090100
     19 OBE          3.5700     2.4570     0.4300 os         1 T53      -0.352900
     20 CBA          2.2120     2.8800     0.4070 c3         1 T53       0.197700
     21 CBJ          1.4210     1.7290    -0.1380 ca         1 T53      -0.104300
     22 CAT          0.6630     0.9280     0.7080 ca         1 T53      -0.091000
     23 CAK          1.4850     1.4170    -1.4920 ca         1 T53      -0.100000
     24 CAH          0.7980     0.3200    -1.9890 ca         1 T53      -0.139000
     25 CAJ          0.0450    -0.4740    -1.1350 ca         1 T53      -0.100000
     26 CBH         -0.0280    -0.1770     0.2230 ca         1 T53      -0.117300
     27 CAV         -0.8570    -1.0280     1.1440 c3         1 T53       0.152300
     28 NBC         -2.2550    -0.6520     1.0440 ns         1 T53      -0.575900
     29 CBF         -3.2340    -1.3980     1.5800 c          1 T53       0.678700
     30 OAB         -3.0090    -2.4600     2.1470 o          1 T53      -0.603100
     31 CBK         -4.6250    -0.8720     1.4420 ca         1 T53      -0.150600
     32 CAR         -5.6820    -1.7800     1.4830 ca         1 T53      -0.093500
     33 CAO         -6.9910    -1.3440     1.3770 ca         1 T53      -0.128000
     34 CAQ         -4.9130     0.4840     1.3130 ca         1 T53      -0.093500
     35 CAN         -6.2280     0.9170     1.2180 ca         1 T53      -0.128000
     36 CBI         -7.2830     0.0130     1.2500 ca         1 T53      -0.063300
     37 CBB         -8.7120     0.4880     1.2000 c3         1 T53       0.211100
     38 NBQ         -9.5560    -0.3780     0.4100 n3         1 T53      -0.720600
     39 CAY        -10.9680    -0.1480     0.6600 c6         1 T53       0.130300
     40 CAW        -11.8060    -1.1450    -0.1340 c6         1 T53       0.163800
     41 NBP        -11.5390    -1.1270    -1.5620 n3         1 T53      -0.713600
     42 CAA        -12.1210     0.0100    -2.2450 c3         1 T53       0.152100
     43 CAX        -10.1120    -1.2750    -1.7900 c6         1 T53       0.163800
     44 CAZ         -9.2590    -0.2820    -1.0100 c6         1 T53       0.130300
     45 H1           8.6310    -1.2420    -0.3380 ha         1 T53       0.191000
     46 H2           6.1650    -3.9050    -2.6440 ha         1 T53       0.172000
     47 H3           4.4810    -2.1260    -2.8730 ha         1 T53       0.149000
     48 H4           4.8380     0.0650    -1.8570 ha         1 T53       0.146000
     49 H5           5.0610     1.0970    -0.0620 hn         1 T53       0.338500
     50 H6           7.9370     3.3340     0.7290 ha         1 T53       0.169000
     51 H7           7.5510     5.5830     1.6200 ha         1 T53       0.139000
     52 H8           5.2380     6.4090     1.9680 ha         1 T53       0.134000
     53 H9           3.3240     4.9720     1.4230 ha         1 T53       0.134000
     54 H10          1.8730     3.1410     1.4140 h1         1 T53       0.046200
     55 H11          2.1080     3.7660    -0.2280 h1         1 T53       0.046200
     56 H12          0.6160     1.1640     1.7660 ha         1 T53       0.138000
     57 H13          2.0740     2.0320    -2.1620 ha         1 T53       0.137000
     58 H14          0.8510     0.0790    -3.0420 ha         1 T53       0.137000
     59 H15         -0.4850    -1.3350    -1.5250 ha         1 T53       0.140000
     60 H16         -0.7450    -2.0810     0.8800 h1         1 T53       0.061200
     61 H17         -0.5070    -0.9180     2.1740 h1         1 T53       0.061200
     62 H18         -2.4820     0.1860     0.5340 hn         1 T53       0.320500
     63 H19         -5.4790    -2.8370     1.5910 ha         1 T53       0.140000
     64 H20         -7.8010    -2.0620     1.3850 ha         1 T53       0.142000
     65 H21         -4.1240     1.2250     1.3050 ha         1 T53       0.140000
     66 H22         -6.4310     1.9770     1.1220 ha         1 T53       0.142000
     67 H23         -9.1030     0.5020     2.2220 h1         1 T53       0.040700
     68 H24         -8.7390     1.5340     0.8510 h1         1 T53       0.040700
     69 H26        -11.1670    -0.2840     1.7260 h1         1 T53       0.036200
     70 H27        -11.2660     0.8850     0.4110 h1         1 T53       0.036200
     71 H28        -11.5900    -2.1510     0.2420 h1         1 T53       0.058950
     72 H29        -12.8680    -0.9550     0.0380 h1         1 T53       0.058950
     73 H31        -11.7490     0.9930    -1.9250 h1         1 T53       0.029700
     74 H32        -11.9340    -0.0740    -3.3170 h1         1 T53       0.029700
     75 H33        -13.2020     0.0080    -2.0980 h1         1 T53       0.029700
     76 H34         -9.8200    -2.2870    -1.4900 h1         1 T53       0.058950
     77 H35         -9.9050    -1.1840    -2.8580 h1         1 T53       0.058950
     78 H36         -9.4180     0.7450    -1.3820 h1         1 T53       0.036200
     79 H37         -8.2050    -0.5150    -1.1760 h1         1 T53       0.036200
@<TRIPOS>BOND
     1     1     2 1   
     2     2     3 1   
     3     2     4 1   
     4     4     5 ar  
     5     4     6 ar  
     6     5     9 ar  
     7     5    45 1   
     8     6     7 ar  
     9     6    46 1   
    10     7     8 ar  
    11     7    47 1   
    12     8     9 ar  
    13     8    48 1   
    14     9    10 1   
    15    10    11 2   
    16    10    12 1   
    17    12    13 1   
    18    12    49 1   
    19    13    14 ar  
    20    13    18 ar  
    21    14    15 ar  
    22    14    50 1   
    23    15    16 ar  
    24    15    51 1   
    25    16    17 ar  
    26    16    52 1   
    27    17    18 ar  
    28    17    53 1   
    29    18    19 1   
    30    19    20 1   
    31    20    21 1   
    32    20    54 1   
    33    20    55 1   
    34    21    22 ar  
    35    21    23 ar  
    36    22    26 ar  
    37    22    56 1   
    38    23    24 ar  
    39    23    57 1   
    40    24    25 ar  
    41    24    58 1   
    42    25    26 ar  
    43    25    59 1   
    44    26    27 1   
    45    27    28 1   
    46    27    60 1   
    47    27    61 1   
    48    28    29 1   
    49    28    62 1   
    50    29    30 2   
    51    29    31 1   
    52    31    32 ar  
    53    31    34 ar  
    54    32    33 ar  
    55    32    63 1   
    56    33    36 ar  
    57    33    64 1   
    58    34    35 ar  
    59    34    65 1   
    60    35    36 ar  
    61    35    66 1   
    62    36    37 1   
    63    37    38 1   
    64    37    67 1   
    65    37    68 1   
    66    38    39 1   
    67    38    44 1   
    68    39    40 1   
    69    39    69 1   
    70    39    70 1   
    71    40    41 1   
    72    40    71 1   
    73    40    72 1   
    74    41    42 1   
    75    41    43 1   
    76    42    73 1   
    77    42    74 1   
    78    42    75 1   
    79    43    44 1   
    80    43    76 1   
    81    43    77 1   
    82    44    78 1   
    83    44    79 1   
@<TRIPOS>SUBSTRUCTURE
     1 T53         1 TEMP              0 ****  ****    0 ROOT
