@<TRIPOS>MOLECULE
T53
   79    83     1     0     0
SMALL
No Charge or Current Charge


@<TRIPOS>ATOM
      1 OAD          5.9290    -5.7010     0.8290 o          1 T53      -0.393000
      2 NBR          6.2420    -4.5930     1.2840 no         1 T53       0.694200
      3 OAE          7.1060    -4.4310     2.1560 o          1 T53      -0.393000
      4 CBM          5.5370    -3.3830     0.7510 ca         1 T53      -0.186200
      5 CAU          5.8620    -2.0930     1.2360 ca         1 T53       0.003000
      6 CAM          4.5400    -3.5160    -0.2400 ca         1 T53      -0.028000
      7 CAI          3.8840    -2.3790    -0.7350 ca         1 T53      -0.129000
      8 CAL          4.2080    -1.1020    -0.2530 ca         1 T53      -0.046000
      9 CBL          5.2050    -0.9420     0.7430 ca         1 T53      -0.162600
     10 CBG          5.5830     0.4210     1.2960 c          1 T53       0.620700
     11 OAC          6.4440     0.5390     2.1610 o          1 T53      -0.575100
     12 NBD          4.8900     1.4960     0.7580 ns         1 T53      -0.132000
     13 CBN          4.9180     2.8980     1.0040 ca         1 T53      -0.049000
     14 CAP          5.7770     3.5130     1.9420 ca         1 T53      -0.102000
     15 CAF          5.7320     4.9060     2.1320 ca         1 T53      -0.115000
     16 CAG          4.8350     5.6930     1.3930 ca         1 T53      -0.097000
     17 CAS          3.9770     5.0900     0.4580 ca         1 T53      -0.169000
     18 CBO          4.0190     3.6930     0.2620 ca         1 T53       0.090100
     19 OBE          3.1990     3.0530    -0.6470 os         1 T53      -0.376100
     20 CBA          2.1660     3.7290    -1.3840 c3         1 T53       0.220900
     21 CBJ          1.4590     2.7010    -2.2610 ca         1 T53      -0.104300
     22 CAT          0.9930     1.4920    -1.7030 ca         1 T53      -0.073000
     23 CAK          1.2700     2.9440    -3.6350 ca         1 T53      -0.082000
     24 CAH          0.6270     1.9890    -4.4410 ca         1 T53      -0.121000
     25 CAJ          0.1720     0.7830    -3.8800 ca         1 T53      -0.082000
     26 CBH          0.3560     0.5280    -2.5080 ca         1 T53      -0.117300
     27 CAV         -0.1300    -0.7750    -1.8950 c3         1 T53       0.152300
     28 NBC         -1.4280    -0.5960    -1.2510 ns         1 T53      -0.508900
     29 CBF         -2.1060    -1.5880    -0.5810 c          1 T53       0.611700
     30 OAB         -1.6420    -2.7160    -0.4910 o          1 T53      -0.603100
     31 CBK         -3.4410    -1.2080     0.0300 ca         1 T53      -0.150600
     32 CAR         -4.1880    -2.1850     0.7270 ca         1 T53      -0.075500
     33 CAO         -5.4280    -1.8660     1.3060 ca         1 T53      -0.110000
     34 CAQ         -3.9740     0.1010    -0.0710 ca         1 T53      -0.075500
     35 CAN         -5.2160     0.4150     0.5100 ca         1 T53      -0.110000
     36 CBI         -5.9510    -0.5650     1.2020 ca         1 T53      -0.063300
     37 CBB         -7.2990    -0.2250     1.8330 c3         1 T53       0.211100
     38 NBQ         -8.4500    -0.8720     1.1570 n3         1 T53      -0.720600
     39 CAY         -9.7380    -0.6630     1.8880 c6         1 T53       0.130300
     40 CAW        -10.9440    -1.3670     1.1810 c6         1 T53       0.163800
     41 NBP        -11.0990    -0.9530    -0.2500 n3         1 T53      -0.713600
     42 CAA        -11.6230     0.4250    -0.4080 c3         1 T53       0.152100
     43 CAX         -9.8070    -1.1820    -0.9720 c6         1 T53       0.163800
     44 CAZ         -8.5920    -0.4770    -0.2810 c6         1 T53       0.130300
     45 H1           6.6290    -1.9810     2.0020 ha         1 T53       0.173000
     46 H2           4.2670    -4.4950    -0.6340 ha         1 T53       0.154000
     47 H3           3.1170    -2.4890    -1.4990 ha         1 T53       0.131000
     48 H4           3.6720    -0.2510    -0.6670 ha         1 T53       0.128000
     49 H5           4.2160     1.2390     0.0510 hn         1 T53       0.172000
     50 H6           6.4820     2.9350     2.5320 ha         1 T53       0.151000
     51 H7           6.3960     5.3760     2.8550 ha         1 T53       0.121000
     52 H8           4.8050     6.7700     1.5450 ha         1 T53       0.116000
     53 H9           3.2930     5.7200    -0.1030 ha         1 T53       0.116000
     54 H10          1.4370     4.1830    -0.7000 h1         1 T53       0.046200
     55 H11          2.5950     4.5210    -2.0110 h1         1 T53       0.046200
     56 H12          1.1320     1.2990    -0.6410 ha         1 T53       0.120000
     57 H13          1.6230     3.8720    -4.0820 ha         1 T53       0.119000
     58 H14          0.4830     2.1810    -5.5020 ha         1 T53       0.119000
     59 H15         -0.3240     0.0490    -4.5120 ha         1 T53       0.122000
     60 H16         -0.2180    -1.5470    -2.6710 h1         1 T53       0.061200
     61 H17          0.5950    -1.1260    -1.1480 h1         1 T53       0.061200
     62 H18         -1.8620     0.3150    -1.2960 hn         1 T53       0.320500
     63 H19         -3.8100    -3.2010     0.8230 ha         1 T53       0.122000
     64 H20         -5.9900    -2.6330     1.8340 ha         1 T53       0.124000
     65 H21         -3.4420     0.8900    -0.5960 ha         1 T53       0.122000
     66 H22         -5.6080     1.4250     0.4200 ha         1 T53       0.124000
     67 H23         -7.2660    -0.5400     2.8850 h1         1 T53       0.040700
     68 H24         -7.4320     0.8660     1.8360 h1         1 T53       0.040700
     69 H26         -9.6580    -1.0540     2.9120 h1         1 T53       0.036200
     70 H27         -9.9540     0.4130     1.9750 h1         1 T53       0.036200
     71 H28        -10.7820    -2.4540     1.2360 h1         1 T53       0.058950
     72 H29        -11.8640    -1.1600     1.7470 h1         1 T53       0.058950
     73 H31        -10.9370     1.1700     0.0160 h1         1 T53       0.029700
     74 H32        -11.7680     0.6620    -1.4700 h1         1 T53       0.029700
     75 H33        -12.5930     0.5280     0.0960 h1         1 T53       0.029700
     76 H34         -9.5940    -2.2600    -1.0160 h1         1 T53       0.058950
     77 H35         -9.8780    -0.8360    -2.0140 h1         1 T53       0.058950
     78 H36         -8.7160     0.6130    -0.3640 h1         1 T53       0.036200
     79 H37         -7.6830    -0.7360    -0.8410 h1         1 T53       0.036200
@<TRIPOS>BOND
     1     1     2 1   
     2     2     3 1   
     3     2     4 1   
     4     4     5 ar  
     5     4     6 ar  
     6     5     9 ar  
     7     5    45 1   
     8     6     7 ar  
     9     6    46 1   
    10     7     8 ar  
    11     7    47 1   
    12     8     9 ar  
    13     8    48 1   
    14     9    10 1   
    15    10    11 2   
    16    10    12 1   
    17    12    13 1   
    18    12    49 1   
    19    13    14 ar  
    20    13    18 ar  
    21    14    15 ar  
    22    14    50 1   
    23    15    16 ar  
    24    15    51 1   
    25    16    17 ar  
    26    16    52 1   
    27    17    18 ar  
    28    17    53 1   
    29    18    19 1   
    30    19    20 1   
    31    20    21 1   
    32    20    54 1   
    33    20    55 1   
    34    21    22 ar  
    35    21    23 ar  
    36    22    26 ar  
    37    22    56 1   
    38    23    24 ar  
    39    23    57 1   
    40    24    25 ar  
    41    24    58 1   
    42    25    26 ar  
    43    25    59 1   
    44    26    27 1   
    45    27    28 1   
    46    27    60 1   
    47    27    61 1   
    48    28    29 1   
    49    28    62 1   
    50    29    30 2   
    51    29    31 1   
    52    31    32 ar  
    53    31    34 ar  
    54    32    33 ar  
    55    32    63 1   
    56    33    36 ar  
    57    33    64 1   
    58    34    35 ar  
    59    34    65 1   
    60    35    36 ar  
    61    35    66 1   
    62    36    37 1   
    63    37    38 1   
    64    37    67 1   
    65    37    68 1   
    66    38    39 1   
    67    38    44 1   
    68    39    40 1   
    69    39    69 1   
    70    39    70 1   
    71    40    41 1   
    72    40    71 1   
    73    40    72 1   
    74    41    42 1   
    75    41    43 1   
    76    42    73 1   
    77    42    74 1   
    78    42    75 1   
    79    43    44 1   
    80    43    76 1   
    81    43    77 1   
    82    44    78 1   
    83    44    79 1   
@<TRIPOS>SUBSTRUCTURE
     1 T53         1 TEMP              0 ****  ****    0 ROOT
