@<TRIPOS>MOLECULE
T54
   26    27     1     0     0
SMALL
abcg2


@<TRIPOS>ATOM
      1 C10          1.5140    -0.6520     1.4050 cc         1 T54      -0.138000
      2 C13          1.3590    -0.7530    -0.8950 cd         1 T54      -0.221000
      3 C02         -1.0780     1.4900     0.0390 c          1 T54       0.611100
      4 C04         -1.5890     0.2930     0.8160 c5         1 T54      -0.145700
      5 C05         -3.0570    -0.0350     0.4870 c5         1 T54      -0.062400
      6 C06         -3.0400    -1.2230    -0.5010 c5         1 T54      -0.071400
      7 C07         -1.5710    -1.4640    -0.8480 c5         1 T54      -0.073400
      8 C08         -0.8240    -0.9910     0.3950 c5         1 T54       0.009600
      9 C09          0.6580    -0.8150     0.2720 cc         1 T54      -0.105300
     10 C11          2.8180    -0.4700     1.0710 cd         1 T54      -0.246000
     11 N01         -0.2570     2.3040     0.7200 nt         1 T54      -0.602000
     12 O03         -1.3930     1.6980    -1.1260 o          1 T54      -0.610100
     13 S12          3.0350    -0.4960    -0.6290 ss         1 T54       0.197000
     14 H101         1.1620    -0.6770     2.4280 ha         1 T54       0.128000
     15 H131         0.9850    -0.8430    -1.9030 h4         1 T54       0.158000
     16 H041        -1.4520     0.4690     1.8850 hc         1 T54       0.053700
     17 H051        -3.5810    -0.3060     1.4030 hc         1 T54       0.049200
     18 H052        -3.5770     0.8280     0.0740 hc         1 T54       0.049200
     19 H061        -3.4590    -2.1110    -0.0240 hc         1 T54       0.042700
     20 H062        -3.6430    -1.0300    -1.3880 hc         1 T54       0.042700
     21 H071        -1.3560    -2.5090    -1.0780 hc         1 T54       0.055200
     22 H072        -1.2790    -0.8730    -1.7180 hc         1 T54       0.055200
     23 H081        -1.0060    -1.7200     1.1930 hc         1 T54       0.055700
     24 H111         3.6600    -0.3250     1.7290 h4         1 T54       0.149000
     25 H011         0.0560     2.0810     1.6490 hn         1 T54       0.309500
     26 H012         0.2040     3.0680     0.2530 hn         1 T54       0.309500
@<TRIPOS>BOND
     1     1     9 1   
     2     1    10 2   
     3     1    14 1   
     4     2     9 2   
     5     2    13 1   
     6     2    15 1   
     7     3     4 1   
     8     3    11 1   
     9     3    12 2   
    10     4     5 1   
    11     4     8 1   
    12     4    16 1   
    13     5     6 1   
    14     5    17 1   
    15     5    18 1   
    16     6     7 1   
    17     6    19 1   
    18     6    20 1   
    19     7     8 1   
    20     7    21 1   
    21     7    22 1   
    22     8     9 1   
    23     8    23 1   
    24    10    13 1   
    25    10    24 1   
    26    11    25 1   
    27    11    26 1   
@<TRIPOS>SUBSTRUCTURE
     1 T54         1 TEMP              0 ****  ****    0 ROOT
