@<TRIPOS>MOLECULE
T54
   26    27     1     0     0
SMALL
No Charge or Current Charge


@<TRIPOS>ATOM
      1 C10          1.4850    -0.6360     1.3090 cc         1 T54      -0.138000
      2 C13          1.3690    -0.8680    -1.0180 cd         1 T54      -0.221000
      3 C02         -0.9450     1.5230     0.1040 c          1 T54       0.611100
      4 C04         -1.5510     0.2760     0.8150 c5         1 T54      -0.145700
      5 C05         -3.0380     0.0500     0.3520 c5         1 T54      -0.062400
      6 C06         -3.0430    -1.3420    -0.3470 c5         1 T54      -0.071400
      7 C07         -1.5960    -1.4580    -0.8790 c5         1 T54      -0.073400
      8 C08         -0.8120    -1.0420     0.3930 c5         1 T54       0.009600
      9 C09          0.6780    -0.8500     0.1650 cc         1 T54      -0.105300
     10 C11          2.8130    -0.4760     1.0100 cd         1 T54      -0.246000
     11 N01         -0.3340     2.3900     0.9410 nt         1 T54      -0.602000
     12 O03         -0.9850     1.7770    -1.0890 o          1 T54      -0.610100
     13 S12          3.0990    -0.5940    -0.7390 ss         1 T54       0.197000
     14 H101         1.0810    -0.6030     2.3180 ha         1 T54       0.128000
     15 H131         0.9950    -1.0150    -2.0240 h4         1 T54       0.158000
     16 H041        -1.4740     0.4090     1.9000 hc         1 T54       0.053700
     17 H051        -3.7330     0.0690     1.1990 hc         1 T54       0.049200
     18 H052        -3.3760     0.8330    -0.3370 hc         1 T54       0.049200
     19 H061        -3.2700    -2.1440     0.3670 hc         1 T54       0.042700
     20 H062        -3.7900    -1.4030    -1.1470 hc         1 T54       0.042700
     21 H071        -1.3520    -2.4750    -1.2050 hc         1 T54       0.055200
     22 H072        -1.4210    -0.7880    -1.7290 hc         1 T54       0.055200
     23 H081        -0.9540    -1.8070     1.1680 hc         1 T54       0.055700
     24 H111         3.6400    -0.3000     1.6880 h4         1 T54       0.149000
     25 H011        -0.2860     2.1890     1.9290 hn         1 T54       0.309500
     26 H012         0.0900     3.2230     0.5640 hn         1 T54       0.309500
@<TRIPOS>BOND
     1     1     9 1   
     2     1    10 2   
     3     1    14 1   
     4     2     9 2   
     5     2    13 1   
     6     2    15 1   
     7     3     4 1   
     8     3    11 1   
     9     3    12 2   
    10     4     5 1   
    11     4     8 1   
    12     4    16 1   
    13     5     6 1   
    14     5    17 1   
    15     5    18 1   
    16     6     7 1   
    17     6    19 1   
    18     6    20 1   
    19     7     8 1   
    20     7    21 1   
    21     7    22 1   
    22     8     9 1   
    23     8    23 1   
    24    10    13 1   
    25    10    24 1   
    26    11    25 1   
    27    11    26 1   
@<TRIPOS>SUBSTRUCTURE
     1 T54         1 TEMP              0 ****  ****    0 ROOT
