@<TRIPOS>MOLECULE
T55
   31    30     1     0     0
SMALL
abcg2


@<TRIPOS>ATOM
      1 CAD         -4.7880     1.3270     0.5600 c3         1 T55      -0.085100
      2 CAE         -4.5100     0.0840    -0.2800 c3         1 T55      -0.060700
      3 CAG         -3.1580    -0.5520     0.0510 c3         1 T55      -0.072400
      4 CAH         -1.9450     0.3390    -0.1850 c3         1 T55      -0.075400
      5 CAI         -0.6250    -0.3980     0.0120 c3         1 T55      -0.076400
      6 CAJ          0.6000     0.4850    -0.1870 c3         1 T55      -0.078400
      7 CAK          1.9150    -0.2610    -0.0010 c3         1 T55      -0.054400
      8 CAL          3.1330     0.6270    -0.1970 c3         1 T55      -0.203400
      9 CAF         -5.6300    -0.9380    -0.1110 c3         1 T55      -0.085100
     10 C            4.5030    -0.0500    -0.0200 c          1 T55       0.716000
     11 O            4.5240    -1.2360     0.3640 o          1 T55      -0.744000
     12 OXT          5.5010     0.6600    -0.2710 o          1 T55      -0.744000
     13 HAL1         3.1010     1.0850    -1.1930 hc         1 T55       0.014200
     14 HAL2         3.0860     1.4730     0.5000 hc         1 T55       0.014200
     15 HAK1         1.9390    -0.7050     0.9980 hc         1 T55       0.037700
     16 HAK2         1.9530    -1.1010    -0.7020 hc         1 T55       0.037700
     17 HAJ1         0.5690     0.9280    -1.1890 hc         1 T55       0.023700
     18 HAJ2         0.5570     1.3270     0.5140 hc         1 T55       0.023700
     19 HAI1        -0.6000    -0.8320     1.0180 hc         1 T55       0.033200
     20 HAI2        -0.5790    -1.2450    -0.6830 hc         1 T55       0.033200
     21 HAH1        -1.9830     0.7470    -1.2020 hc         1 T55       0.032700
     22 HAH2        -1.9720     1.2020     0.4880 hc         1 T55       0.032700
     23 HAG1        -3.1670    -0.8870     1.0960 hc         1 T55       0.035200
     24 HAG2        -3.0480    -1.4600    -0.5530 hc         1 T55       0.035200
     25 HAE         -4.4860     0.3870    -1.3340 hc         1 T55       0.041700
     26 HAD1        -5.7630     1.7530     0.3190 hc         1 T55       0.028033
     27 HAD2        -4.7880     1.0840     1.6260 hc         1 T55       0.028033
     28 HAD3        -4.0440     2.1070     0.3980 hc         1 T55       0.028033
     29 HAF1        -6.5980    -0.5230    -0.4000 hc         1 T55       0.028033
     30 HAF2        -5.4540    -1.8260    -0.7210 hc         1 T55       0.028033
     31 HAF3        -5.7090    -1.2630     0.9300 hc         1 T55       0.028033
@<TRIPOS>BOND
     1     1     2 1   
     2     1    26 1   
     3     1    27 1   
     4     1    28 1   
     5     2     3 1   
     6     2     9 1   
     7     2    25 1   
     8     3     4 1   
     9     3    23 1   
    10     3    24 1   
    11     4     5 1   
    12     4    21 1   
    13     4    22 1   
    14     5     6 1   
    15     5    19 1   
    16     5    20 1   
    17     6     7 1   
    18     6    17 1   
    19     6    18 1   
    20     7     8 1   
    21     7    15 1   
    22     7    16 1   
    23     8    10 1   
    24     8    13 1   
    25     8    14 1   
    26     9    29 1   
    27     9    30 1   
    28     9    31 1   
    29    10    11 1   
    30    10    12 1   
@<TRIPOS>SUBSTRUCTURE
     1 T55         1 TEMP              0 ****  ****    0 ROOT
