@<TRIPOS>MOLECULE
T55
   31    30     1     0     0
SMALL
No Charge or Current Charge


@<TRIPOS>ATOM
      1 CAD         -4.8440     1.2370     0.7300 c3         1 T55      -0.085100
      2 CAE         -4.5380     0.1120    -0.2880 c3         1 T55      -0.060700
      3 CAG         -3.1660    -0.5740    -0.0390 c3         1 T55      -0.072400
      4 CAH         -1.9390     0.3600    -0.1700 c3         1 T55      -0.075400
      5 CAI         -0.5950    -0.3880    -0.0220 c3         1 T55      -0.076400
      6 CAJ          0.6310     0.5420    -0.1480 c3         1 T55      -0.078400
      7 CAK          1.9760    -0.2050     0.0000 c3         1 T55      -0.054400
      8 CAL          3.2070     0.7240    -0.1250 c3         1 T55      -0.203400
      9 CAF         -5.6790    -0.9300    -0.3090 c3         1 T55      -0.085100
     10 C            4.5060    -0.0890     0.0320 c          1 T55       0.716000
     11 O            4.9580    -0.2410     1.1560 o          1 T55      -0.744000
     12 OXT          5.0010    -0.5850    -0.9690 o          1 T55      -0.744000
     13 HAL1         3.1500     1.1650    -1.1290 hc         1 T55       0.014200
     14 HAL2         3.1130     1.4580     0.6850 hc         1 T55       0.014200
     15 HAK1         2.0020    -0.7090     0.9750 hc         1 T55       0.037700
     16 HAK2         2.0370    -0.9900    -0.7650 hc         1 T55       0.037700
     17 HAJ1         0.6040     1.0440    -1.1230 hc         1 T55       0.023700
     18 HAJ2         0.5690     1.3260     0.6180 hc         1 T55       0.023700
     19 HAI1        -0.5690    -0.8890     0.9540 hc         1 T55       0.033200
     20 HAI2        -0.5330    -1.1710    -0.7870 hc         1 T55       0.033200
     21 HAH1        -1.9670     0.8590    -1.1470 hc         1 T55       0.032700
     22 HAH2        -1.9880     1.1440     0.5950 hc         1 T55       0.032700
     23 HAG1        -3.1650    -1.0310     0.9590 hc         1 T55       0.035200
     24 HAG2        -3.0510    -1.3950    -0.7580 hc         1 T55       0.035200
     25 HAE         -4.5040     0.5710    -1.2840 hc         1 T55       0.041700
     26 HAD1        -5.8390     1.6620     0.5480 hc         1 T55       0.028033
     27 HAD2        -4.8190     0.8530     1.7570 hc         1 T55       0.028033
     28 HAD3        -4.1200     2.0550     0.6480 hc         1 T55       0.028033
     29 HAF1        -6.6380    -0.4510    -0.5410 hc         1 T55       0.028033
     30 HAF2        -5.4930    -1.6960    -1.0720 hc         1 T55       0.028033
     31 HAF3        -5.7710    -1.4300     0.6630 hc         1 T55       0.028033
@<TRIPOS>BOND
     1     1     2 1   
     2     1    26 1   
     3     1    27 1   
     4     1    28 1   
     5     2     3 1   
     6     2     9 1   
     7     2    25 1   
     8     3     4 1   
     9     3    23 1   
    10     3    24 1   
    11     4     5 1   
    12     4    21 1   
    13     4    22 1   
    14     5     6 1   
    15     5    19 1   
    16     5    20 1   
    17     6     7 1   
    18     6    17 1   
    19     6    18 1   
    20     7     8 1   
    21     7    15 1   
    22     7    16 1   
    23     8    10 1   
    24     8    13 1   
    25     8    14 1   
    26     9    29 1   
    27     9    30 1   
    28     9    31 1   
    29    10    11 1   
    30    10    12 1   
@<TRIPOS>SUBSTRUCTURE
     1 T55         1 TEMP              0 ****  ****    0 ROOT
