@<TRIPOS>MOLECULE
T56
   30    32     1     0     0
SMALL
No Charge or Current Charge


@<TRIPOS>ATOM
      1 C02         96.4370   -90.5700     6.3210 c          1 T56       0.607300
      2 C03         97.3020   -90.2580     7.4920 ce         1 T56      -0.312200
      3 C04         98.6450   -90.5030     7.5470 cf         1 T56      -0.057200
      4 C05         99.5970   -90.2390     8.6460 ca         1 T56      -0.078800
      5 C06         99.2040   -89.6530     9.8770 ca         1 T56      -0.064000
      6 C07        100.1460   -89.4140    10.9100 ca         1 T56      -0.141000
      7 C08        101.5060   -89.7530    10.7450 ca         1 T56      -0.038000
      8 C09        101.8920   -90.3320     9.5250 cp         1 T56      -0.096000
      9 C10        103.1800   -90.8010     9.0090 cp         1 T56      -0.095000
     10 C11        104.4770   -90.8360     9.5510 ca         1 T56      -0.054000
     11 C12        105.5130   -91.3710     8.7520 ca         1 T56      -0.132000
     12 C13        105.2450   -91.8560     7.4450 ca         1 T56      -0.083000
     13 C14        103.9360   -91.8150     6.9150 ca         1 T56      -0.107000
     14 C15        102.9300   -91.2810     7.7250 ca         1 T56       0.085100
     15 C17        100.9570   -90.5630     8.5150 ca         1 T56       0.110100
     16 N18         95.1010   -90.2350     6.4930 ns         1 T56      -0.387400
     17 O01         96.8660   -91.0860     5.2980 o          1 T56      -0.570100
     18 O16        101.5900   -91.1370     7.4280 os         1 T56      -0.176200
     19 O19         94.1810   -90.2340     5.3740 oh         1 T56      -0.427100
     20 H1          96.8010   -89.8080     8.3440 ha         1 T56       0.176000
     21 H2          99.1050   -90.9580     6.6650 ha         1 T56       0.211000
     22 H3          98.1670   -89.3770    10.0480 ha         1 T56       0.116000
     23 H4          99.8160   -88.9640    11.8440 ha         1 T56       0.119000
     24 H5         102.2320   -89.5710    11.5350 ha         1 T56       0.123000
     25 H6         104.6760   -90.4620    10.5530 ha         1 T56       0.120000
     26 H7         106.5270   -91.4110     9.1440 ha         1 T56       0.118000
     27 H8         106.0560   -92.2650     6.8460 ha         1 T56       0.118000
     28 H9         103.7160   -92.1830     5.9160 ha         1 T56       0.136000
     29 H10         94.8280   -89.6780     7.3000 hn         1 T56       0.331500
     30 H11         93.4120   -90.7570     5.7050 ho         1 T56       0.446000
@<TRIPOS>BOND
     1     1     2 1   
     2     1    16 1   
     3     1    17 2   
     4     2     3 2   
     5     2    20 1   
     6     3     4 1   
     7     3    21 1   
     8     4     5 ar  
     9     4    15 ar  
    10     5     6 ar  
    11     5    22 1   
    12     6     7 ar  
    13     6    23 1   
    14     7     8 ar  
    15     7    24 1   
    16     8     9 1   
    17     8    15 ar  
    18     9    10 ar  
    19     9    14 ar  
    20    10    11 ar  
    21    10    25 1   
    22    11    12 ar  
    23    11    26 1   
    24    12    13 ar  
    25    12    27 1   
    26    13    14 ar  
    27    13    28 1   
    28    14    18 1   
    29    15    18 1   
    30    16    19 1   
    31    16    29 1   
    32    19    30 1   
@<TRIPOS>SUBSTRUCTURE
     1 T56         1 TEMP              0 ****  ****    0 ROOT
