@<TRIPOS>MOLECULE
T56
   30    32     1     0     0
SMALL
abcg2


@<TRIPOS>ATOM
      1 C02         96.5450   -90.4850     6.3440 c          1 T56       0.607300
      2 C03         97.3650   -90.1980     7.5430 ce         1 T56      -0.312200
      3 C04         98.6860   -90.4000     7.5290 cf         1 T56      -0.057200
      4 C05         99.6000   -90.1610     8.6390 ca         1 T56      -0.078800
      5 C06         99.2250   -89.5870     9.8590 ca         1 T56      -0.064000
      6 C07        100.1330   -89.3780    10.8920 ca         1 T56      -0.141000
      7 C08        101.4690   -89.7320    10.7600 ca         1 T56      -0.038000
      8 C09        101.8770   -90.3020     9.5620 cp         1 T56      -0.096000
      9 C10        103.1290   -90.7960     9.0390 cp         1 T56      -0.095000
     10 C11        104.4300   -90.8970     9.5230 ca         1 T56      -0.054000
     11 C12        105.3960   -91.4500     8.6960 ca         1 T56      -0.132000
     12 C13        105.0750   -91.8950     7.4100 ca         1 T56      -0.083000
     13 C14        103.7830   -91.8020     6.9110 ca         1 T56      -0.107000
     14 C15        102.8380   -91.2490     7.7520 ca         1 T56       0.085100
     15 C17        100.9460   -90.5010     8.5400 ca         1 T56       0.110100
     16 N18         95.2270   -90.2840     6.5650 ns         1 T56      -0.387400
     17 O01         96.9950   -90.8920     5.2870 o          1 T56      -0.570100
     18 O16        101.5220   -91.0720     7.4530 os         1 T56      -0.176200
     19 O19         94.3500   -90.3350     5.5270 oh         1 T56      -0.427100
     20 H1          96.8570   -89.8300     8.4270 ha         1 T56       0.176000
     21 H2          99.1250   -90.7820     6.6130 ha         1 T56       0.211000
     22 H3          98.1970   -89.2890    10.0110 ha         1 T56       0.116000
     23 H4          99.7860   -88.9290    11.8130 ha         1 T56       0.119000
     24 H5         102.1710   -89.5650    11.5670 ha         1 T56       0.123000
     25 H6         104.6810   -90.5530    10.5180 ha         1 T56       0.120000
     26 H7         106.4140   -91.5400     9.0490 ha         1 T56       0.118000
     27 H8         105.8500   -92.3220     6.7880 ha         1 T56       0.118000
     28 H9         103.5330   -92.1460     5.9160 ha         1 T56       0.136000
     29 H10         94.8880   -89.7850     7.3770 hn         1 T56       0.331500
     30 H11         93.9470   -91.2130     5.5570 ho         1 T56       0.446000
@<TRIPOS>BOND
     1     1     2 1   
     2     1    16 1   
     3     1    17 2   
     4     2     3 2   
     5     2    20 1   
     6     3     4 1   
     7     3    21 1   
     8     4     5 ar  
     9     4    15 ar  
    10     5     6 ar  
    11     5    22 1   
    12     6     7 ar  
    13     6    23 1   
    14     7     8 ar  
    15     7    24 1   
    16     8     9 1   
    17     8    15 ar  
    18     9    10 ar  
    19     9    14 ar  
    20    10    11 ar  
    21    10    25 1   
    22    11    12 ar  
    23    11    26 1   
    24    12    13 ar  
    25    12    27 1   
    26    13    14 ar  
    27    13    28 1   
    28    14    18 1   
    29    15    18 1   
    30    16    19 1   
    31    16    29 1   
    32    19    30 1   
@<TRIPOS>SUBSTRUCTURE
     1 T56         1 TEMP              0 ****  ****    0 ROOT
