@<TRIPOS>MOLECULE
T58
  106   111     1     0     0
SMALL
abcg2


@<TRIPOS>ATOM
      1 CCA         -3.7180     6.6620    -0.3370 c3         1 T58       0.145900
      2 OBZ         -5.1140     6.7120    -0.5380 os         1 T58      -0.321100
      3 CBL         -5.6800     7.9120    -0.7720 ca         1 T58       0.113100
      4 CBM         -4.9930     9.1160    -0.8040 ca         1 T58      -0.171000
      5 CBK         -7.0710     7.9000    -0.9950 ca         1 T58       0.110100
      6 OBX         -7.6650     6.6910    -0.9340 os         1 T58      -0.321100
      7 CBY         -9.0610     6.6280    -1.1290 c3         1 T58       0.145900
      8 CBJ         -7.7200     9.0960    -1.2520 ca         1 T58      -0.166000
      9 CBI         -7.0130    10.2970    -1.2850 ca         1 T58      -0.107000
     10 CBC         -5.6470    10.3240    -1.0590 ca         1 T58      -0.080300
     11 CBB         -4.8800    11.6220    -1.0520 c3         1 T58      -0.027100
     12 CAZ         -4.9920    12.4340    -2.3380 c3         1 T58      -0.071400
     13 CAY         -4.4090    11.7440    -3.5630 c3         1 T58       0.222600
     14 OAW         -4.7300    12.6110    -4.6650 os         1 T58      -0.437100
     15 C           -4.6330    12.1400    -5.8980 c          1 T58       0.576100
     16 O           -4.2940    11.0160    -6.1670 o          1 T58      -0.482000
     17 CA          -5.0790    13.1590    -6.9450 c6         1 T58       0.046700
     18 CB          -4.3740    12.9480    -8.2830 c6         1 T58      -0.074400
     19 CAS         -2.9260    13.4120    -8.2460 c6         1 T58      -0.077400
     20 CAT         -2.8730    14.8620    -7.7930 c6         1 T58      -0.093400
     21 CAU         -3.5810    15.0440    -6.4610 c6         1 T58       0.101000
     22 N           -4.9440    14.5320    -6.4880 n          1 T58      -0.393800
     23 CAI         -6.0180    15.1290    -5.9060 c          1 T58       0.620100
     24 OAJ         -7.0930    14.5530    -5.8140 o          1 T58      -0.602100
     25 CAG         -5.8570    16.5400    -5.3380 c3         1 T58      -0.085400
     26 CAH         -7.1440    17.3620    -5.5150 c6         1 T58      -0.046700
     27 CAL         -7.4460    17.5710    -7.0010 c6         1 T58      -0.073900
     28 CAM         -8.7070    18.4010    -7.2140 c6         1 T58      -0.072400
     29 CAN         -8.6050    19.7480    -6.5070 c6         1 T58      -0.076400
     30 CAO         -8.2900    19.5600    -5.0280 c6         1 T58      -0.072400
     31 CAP         -7.0330    18.7210    -4.8220 c6         1 T58      -0.073900
     32 CAF         -5.4130    16.4100    -3.8940 ca         1 T58      -0.014300
     33 CAA         -4.1630    16.8770    -3.5120 ca         1 T58      -0.211000
     34 CAE         -6.2650    15.8410    -2.9500 ca         1 T58      -0.203000
     35 CAD         -5.8680    15.7520    -1.6200 ca         1 T58       0.151100
     36 OBV         -6.6110    15.2130    -0.6370 os         1 T58      -0.325100
     37 CBW         -7.9100    14.7530    -0.9500 c3         1 T58       0.142900
     38 CAC         -4.6110    16.2260    -1.2300 ca         1 T58       0.032100
     39 OBT         -4.2240    16.1630     0.0720 os         1 T58      -0.326100
     40 CBU         -3.4770    15.0020     0.4040 c3         1 T58       0.147900
     41 CAB         -3.7590    16.7850    -2.1810 ca         1 T58       0.148100
     42 OBO         -2.5850    17.2520    -1.7050 os         1 T58      -0.328100
     43 CBP         -1.4630    17.3400    -2.5730 c3         1 T58       0.191800
     44 CBQ         -0.9490    15.9940    -2.9740 c2         1 T58      -0.234200
     45 CBR         -0.6750    15.6690    -4.2310 c2         1 T58      -0.247200
     46 CBS         -0.0590    14.3960    -4.7110 c3         1 T58       0.196800
     47 OBN          0.2110    13.4430    -3.7020 os         1 T58      -0.351100
     48 CBE         -0.6830    12.4420    -3.5080 ca         1 T58       0.116100
     49 CBD         -2.0570    12.6210    -3.6210 ca         1 T58      -0.164000
     50 CBA         -2.9200    11.5400    -3.4600 ca         1 T58      -0.077300
     51 CBH         -2.4060    10.2890    -3.1500 ca         1 T58      -0.112000
     52 CBG         -1.0360    10.1260    -2.9860 ca         1 T58      -0.090000
     53 CBF         -0.1700    11.1910    -3.1730 ca         1 T58      -0.127000
     54 HCK         -3.4640     5.6150    -0.1890 h1         1 T58       0.038700
     55 HCL         -3.1650     7.0390    -1.2020 h1         1 T58       0.038700
     56 HCJ         -3.4090     7.2260     0.5480 h1         1 T58       0.038700
     57 HBM         -3.9260     9.1370    -0.6230 ha         1 T58       0.118000
     58 HCI         -9.3420     5.5820    -1.0270 h1         1 T58       0.039367
     59 HBY         -9.6070     7.2120    -0.3820 h1         1 T58       0.039367
     60 HCH         -9.3530     6.9740    -2.1240 h1         1 T58       0.039367
     61 HBJ         -8.7870     9.1170    -1.4260 ha         1 T58       0.118000
     62 HBI         -7.5560    11.2140    -1.4810 ha         1 T58       0.111000
     63 HCA         -3.8290    11.4270    -0.8230 hc         1 T58       0.054200
     64 HBB         -5.2530    12.2490    -0.2380 hc         1 T58       0.054200
     65 HB9         -4.4880    13.3940    -2.1980 hc         1 T58       0.058200
     66 HAZ         -6.0420    12.6590    -2.5380 hc         1 T58       0.058200
     67 HAY         -4.8980    10.7760    -3.7130 h1         1 T58       0.077700
     68 HA          -6.1440    12.9620    -7.0890 h1         1 T58       0.109700
     69 HB1         -4.9200    13.5210    -9.0370 hc         1 T58       0.063200
     70 HB2         -4.4520    11.9000    -8.5720 hc         1 T58       0.063200
     71 HB3         -2.3440    12.7880    -7.5600 hc         1 T58       0.051200
     72 HB4         -2.4720    13.2990    -9.2320 hc         1 T58       0.051200
     73 HB5         -1.8420    15.2020    -7.6790 hc         1 T58       0.047700
     74 HB6         -3.3430    15.5050    -8.5420 hc         1 T58       0.047700
     75 HB7         -3.0180    14.5340    -5.6730 h1         1 T58       0.047200
     76 HB8         -3.5780    16.0950    -6.2000 h1         1 T58       0.047200
     77 HAG         -5.0810    17.0870    -5.8760 hc         1 T58       0.061700
     78 HAH         -7.9810    16.8180    -5.0650 hc         1 T58       0.070700
     79 HAL         -7.5470    16.6130    -7.5160 hc         1 T58       0.041450
     80 HAM         -6.5950    18.0870    -7.4620 hc         1 T58       0.041450
     81 HAN         -8.8840    18.5420    -8.2830 hc         1 T58       0.040450
     82 HAO         -9.5710    17.8520    -6.8250 hc         1 T58       0.040450
     83 HAP         -7.8110    20.3420    -6.9740 hc         1 T58       0.037700
     84 HAQ         -9.5310    20.3150    -6.6300 hc         1 T58       0.037700
     85 HAR         -8.1740    20.5290    -4.5370 hc         1 T58       0.040450
     86 HAS         -9.1360    19.0640    -4.5390 hc         1 T58       0.040450
     87 HAU         -6.8500    18.5900    -3.7530 hc         1 T58       0.041450
     88 HAT         -6.1650    19.2590    -5.2230 hc         1 T58       0.041450
     89 HAA         -3.5200    17.3390    -4.2500 ha         1 T58       0.114000
     90 HAE         -7.2290    15.4650    -3.2630 ha         1 T58       0.139000
     91 HCG         -8.3430    14.3980    -0.0180 h1         1 T58       0.043700
     92 HBW         -8.5410    15.5500    -1.3510 h1         1 T58       0.043700
     93 HCF         -7.8930    13.9250    -1.6640 h1         1 T58       0.043700
     94 HBU         -3.0670    15.1540     1.4010 h1         1 T58       0.033033
     95 HCD         -4.1070    14.1090     0.4200 h1         1 T58       0.033033
     96 HCE         -2.6520    14.8320    -0.2910 h1         1 T58       0.033033
     97 HCB         -0.7100    17.8620    -1.9800 h1         1 T58       0.059200
     98 HBP         -1.6680    17.9640    -3.4470 h1         1 T58       0.059200
     99 HBQ         -0.7590    15.2940    -2.1660 ha         1 T58       0.199000
    100 HBR         -0.8660    16.3860    -5.0260 ha         1 T58       0.169000
    101 HBS         -0.6810    13.9590    -5.5030 h1         1 T58       0.059200
    102 HCC          0.9020    14.6330    -5.1800 h1         1 T58       0.059200
    103 HBD         -2.4580    13.6070    -3.8230 ha         1 T58       0.128000
    104 HBH         -3.0720     9.4440    -3.0300 ha         1 T58       0.123000
    105 HBG         -0.6350     9.1520    -2.7370 ha         1 T58       0.115000
    106 HBF          0.9000    11.0570    -3.0780 ha         1 T58       0.127000
@<TRIPOS>BOND
     1     1     2 1   
     2     1    54 1   
     3     1    55 1   
     4     1    56 1   
     5     2     3 1   
     6     3     4 ar  
     7     3     5 ar  
     8     4    10 ar  
     9     4    57 1   
    10     5     6 1   
    11     5     8 ar  
    12     6     7 1   
    13     7    58 1   
    14     7    59 1   
    15     7    60 1   
    16     8     9 ar  
    17     8    61 1   
    18     9    10 ar  
    19     9    62 1   
    20    10    11 1   
    21    11    12 1   
    22    11    63 1   
    23    11    64 1   
    24    12    13 1   
    25    12    65 1   
    26    12    66 1   
    27    13    14 1   
    28    13    50 1   
    29    13    67 1   
    30    14    15 1   
    31    15    16 2   
    32    15    17 1   
    33    17    18 1   
    34    17    22 1   
    35    17    68 1   
    36    18    19 1   
    37    18    69 1   
    38    18    70 1   
    39    19    20 1   
    40    19    71 1   
    41    19    72 1   
    42    20    21 1   
    43    20    73 1   
    44    20    74 1   
    45    21    22 1   
    46    21    75 1   
    47    21    76 1   
    48    22    23 1   
    49    23    24 2   
    50    23    25 1   
    51    25    26 1   
    52    25    32 1   
    53    25    77 1   
    54    26    27 1   
    55    26    31 1   
    56    26    78 1   
    57    27    28 1   
    58    27    79 1   
    59    27    80 1   
    60    28    29 1   
    61    28    81 1   
    62    28    82 1   
    63    29    30 1   
    64    29    83 1   
    65    29    84 1   
    66    30    31 1   
    67    30    85 1   
    68    30    86 1   
    69    31    87 1   
    70    31    88 1   
    71    32    33 ar  
    72    32    34 ar  
    73    33    41 ar  
    74    33    89 1   
    75    34    35 ar  
    76    34    90 1   
    77    35    36 1   
    78    35    38 ar  
    79    36    37 1   
    80    37    91 1   
    81    37    92 1   
    82    37    93 1   
    83    38    39 1   
    84    38    41 ar  
    85    39    40 1   
    86    40    94 1   
    87    40    95 1   
    88    40    96 1   
    89    41    42 1   
    90    42    43 1   
    91    43    44 1   
    92    43    97 1   
    93    43    98 1   
    94    44    45 2   
    95    44    99 1   
    96    45    46 1   
    97    45   100 1   
    98    46    47 1   
    99    46   101 1   
   100    46   102 1   
   101    47    48 1   
   102    48    49 ar  
   103    48    53 ar  
   104    49    50 ar  
   105    49   103 1   
   106    50    51 ar  
   107    51    52 ar  
   108    51   104 1   
   109    52    53 ar  
   110    52   105 1   
   111    53   106 1   
@<TRIPOS>SUBSTRUCTURE
     1 T58         1 TEMP              0 ****  ****    0 ROOT
