@<TRIPOS>MOLECULE
T58
  106   111     1     0     0
SMALL
No Charge or Current Charge


@<TRIPOS>ATOM
      1 CCA         -3.0270     7.4650     0.3300 c3         1 T58       0.145900
      2 OBZ         -4.4100     7.2800    -0.0240 os         1 T58      -0.321100
      3 CBL         -5.1850     8.2990    -0.5550 ca         1 T58       0.113100
      4 CBM         -4.6670     9.6000    -0.7530 ca         1 T58      -0.171000
      5 CBK         -6.5260     8.0170    -0.9090 ca         1 T58       0.110100
      6 OBX         -7.0120     6.7350    -0.7060 os         1 T58      -0.321100
      7 CBY         -8.3600     6.3590    -1.0380 c3         1 T58       0.145900
      8 CBJ         -7.3320     9.0410    -1.4570 ca         1 T58      -0.166000
      9 CBI         -6.8040    10.3270    -1.6550 ca         1 T58      -0.107000
     10 CBC         -5.4700    10.6120    -1.3120 ca         1 T58      -0.080300
     11 CBB         -4.8940    12.0070    -1.5380 c3         1 T58      -0.027100
     12 CAZ         -4.9790    12.4810    -3.0090 c3         1 T58      -0.071400
     13 CAY         -4.3190    11.5130    -4.0320 c3         1 T58       0.222600
     14 OAW         -4.3980    12.0980    -5.3450 os         1 T58      -0.437100
     15 C           -5.5880    12.1680    -6.0210 c          1 T58       0.576100
     16 O           -6.6530    11.7970    -5.5440 o          1 T58      -0.482000
     17 CA          -5.5090    13.1240    -7.2480 c6         1 T58       0.046700
     18 CB          -4.5130    12.5920    -8.3240 c6         1 T58      -0.074400
     19 CAS         -3.0410    12.9370    -8.0420 c6         1 T58      -0.077400
     20 CAT         -2.9160    14.4560    -7.9100 c6         1 T58      -0.093400
     21 CAU         -3.8330    15.0210    -6.8050 c6         1 T58       0.101000
     22 N           -5.2650    14.5660    -6.8350 n          1 T58      -0.393800
     23 CAI         -6.2740    15.2250    -6.0720 c          1 T58       0.620100
     24 OAJ         -7.3910    14.7250    -5.9970 o          1 T58      -0.602100
     25 CAG         -5.9720    16.5420    -5.2930 c3         1 T58      -0.085400
     26 CAH         -7.0930    17.6290    -5.4580 c6         1 T58      -0.046700
     27 CAL         -7.2940    18.0170    -6.9540 c6         1 T58      -0.073900
     28 CAM         -8.3960    19.0920    -7.1240 c6         1 T58      -0.072400
     29 CAN         -8.0870    20.3490    -6.2780 c6         1 T58      -0.076400
     30 CAO         -7.8920    19.9800    -4.7880 c6         1 T58      -0.072400
     31 CAP         -6.7910    18.9060    -4.6160 c6         1 T58      -0.073900
     32 CAF         -5.6870    16.1820    -3.8280 ca         1 T58      -0.014300
     33 CAA         -4.4000    16.3640    -3.2890 ca         1 T58      -0.211000
     34 CAE         -6.7080    15.6880    -3.0030 ca         1 T58      -0.203000
     35 CAD         -6.4580    15.3810    -1.6510 ca         1 T58       0.151100
     36 OBV         -7.4540    14.8720    -0.8320 os         1 T58      -0.325100
     37 CBW         -8.7650    14.5360    -1.3190 c3         1 T58       0.142900
     38 CAC         -5.1700    15.5750    -1.0980 ca         1 T58       0.032100
     39 OBT         -5.0180    15.2390     0.2480 os         1 T58      -0.326100
     40 CBU         -3.7550    15.1040     0.9240 c3         1 T58       0.147900
     41 CAB         -4.1240    16.0760    -1.9310 ca         1 T58       0.148100
     42 OBO         -2.8670    16.3220    -1.3970 os         1 T58      -0.328100
     43 CBP         -1.7140    16.7080    -2.1660 c3         1 T58       0.191800
     44 CBQ         -1.1810    15.4930    -2.8990 c2         1 T58      -0.234200
     45 CBR         -0.5940    15.5170    -4.1110 c2         1 T58      -0.247200
     46 CBS          0.0500    14.3620    -4.8690 c3         1 T58       0.196800
     47 OBN          0.3510    13.2570    -3.9880 os         1 T58      -0.351100
     48 CBE         -0.5600    12.2560    -3.7140 ca         1 T58       0.116100
     49 CBD         -1.9340    12.3910    -3.9930 ca         1 T58      -0.164000
     50 CBA         -2.8300    11.3330    -3.7360 ca         1 T58      -0.077300
     51 CBH         -2.3370    10.1280    -3.2000 ca         1 T58      -0.112000
     52 CBG         -0.9700     9.9950    -2.8990 ca         1 T58      -0.090000
     53 CBF         -0.0860    11.0590    -3.1520 ca         1 T58      -0.127000
     54 HCK         -2.6070     6.5300     0.7200 h1         1 T58       0.038700
     55 HCL         -2.4380     7.7640    -0.5460 h1         1 T58       0.038700
     56 HCJ         -2.9230     8.2340     1.1060 h1         1 T58       0.038700
     57 HBM         -3.6420     9.8370    -0.4850 ha         1 T58       0.118000
     58 HCI         -8.5290     5.3020    -0.7960 h1         1 T58       0.039367
     59 HBY         -9.0830     6.9580    -0.4700 h1         1 T58       0.039367
     60 HCH         -8.5510     6.4970    -2.1100 h1         1 T58       0.039367
     61 HBJ         -8.3650     8.8590    -1.7360 ha         1 T58       0.118000
     62 HBI         -7.4370    11.1040    -2.0760 ha         1 T58       0.111000
     63 HCA         -3.8480    12.0530    -1.2110 hc         1 T58       0.054200
     64 HBB         -5.4340    12.7200    -0.9070 hc         1 T58       0.054200
     65 HB9         -4.4950    13.4590    -3.0890 hc         1 T58       0.058200
     66 HAZ         -6.0320    12.6400    -3.2580 hc         1 T58       0.058200
     67 HAY         -4.8220    10.5360    -4.0090 h1         1 T58       0.077700
     68 HA          -6.5110    13.0630    -7.6950 h1         1 T58       0.109700
     69 HB1         -4.7930    13.0180    -9.2980 hc         1 T58       0.063200
     70 HB2         -4.6270    11.5050    -8.4330 hc         1 T58       0.063200
     71 HB3         -2.6750    12.4380    -7.1360 hc         1 T58       0.051200
     72 HB4         -2.4090    12.5810    -8.8680 hc         1 T58       0.051200
     73 HB5         -1.8740    14.7320    -7.7040 hc         1 T58       0.047700
     74 HB6         -3.1750    14.9270    -8.8680 hc         1 T58       0.047700
     75 HB7         -3.4120    14.7750    -5.8210 h1         1 T58       0.047200
     76 HB8         -3.7790    16.1090    -6.9230 h1         1 T58       0.047200
     77 HAG         -5.0590    16.9930    -5.6770 hc         1 T58       0.061700
     78 HAH         -8.0300    17.1900    -5.0890 hc         1 T58       0.070700
     79 HAL         -7.5660    17.1330    -7.5470 hc         1 T58       0.041450
     80 HAM         -6.3500    18.3920    -7.3720 hc         1 T58       0.041450
     81 HAN         -8.4850    19.3690    -8.1830 hc         1 T58       0.040450
     82 HAO         -9.3690    18.6750    -6.8270 hc         1 T58       0.040450
     83 HAP         -7.1820    20.8410    -6.6600 hc         1 T58       0.037700
     84 HAQ         -8.9040    21.0770    -6.3780 hc         1 T58       0.037700
     85 HAR         -7.6290    20.8790    -4.2140 hc         1 T58       0.040450
     86 HAS         -8.8390    19.6100    -4.3710 hc         1 T58       0.040450
     87 HAU         -6.7090    18.6520    -3.5500 hc         1 T58       0.041450
     88 HAT         -5.8190    19.3250    -4.9100 hc         1 T58       0.041450
     89 HAA         -3.6210    16.7490    -3.9390 ha         1 T58       0.114000
     90 HAE         -7.6960    15.5450    -3.4280 ha         1 T58       0.139000
     91 HCG         -9.3780    14.1260    -0.5070 h1         1 T58       0.043700
     92 HBW         -9.2750    15.4250    -1.7130 h1         1 T58       0.043700
     93 HCF         -8.7030    13.7810    -2.1140 h1         1 T58       0.043700
     94 HBU         -3.9110    14.7050     1.9340 h1         1 T58       0.033033
     95 HCD         -3.0960    14.4110     0.3860 h1         1 T58       0.033033
     96 HCE         -3.2570    16.0760     1.0260 h1         1 T58       0.033033
     97 HCB         -0.9310    17.0720    -1.4880 h1         1 T58       0.059200
     98 HBP         -1.9430    17.5310    -2.8550 h1         1 T58       0.059200
     99 HBQ         -1.2580    14.5690    -2.3250 ha         1 T58       0.199000
    100 HBR         -0.5110    16.4640    -4.6470 ha         1 T58       0.169000
    101 HBS         -0.5870    14.0400    -5.7030 h1         1 T58       0.059200
    102 HCC          0.9850    14.7290    -5.3130 h1         1 T58       0.059200
    103 HBD         -2.3210    13.3160    -4.4050 ha         1 T58       0.128000
    104 HBH         -3.0120     9.2970    -3.0080 ha         1 T58       0.123000
    105 HBG         -0.5950     9.0650    -2.4770 ha         1 T58       0.115000
    106 HBF          0.9720    10.9500    -2.9290 ha         1 T58       0.127000
@<TRIPOS>BOND
     1     1     2 1   
     2     1    54 1   
     3     1    55 1   
     4     1    56 1   
     5     2     3 1   
     6     3     4 ar  
     7     3     5 ar  
     8     4    10 ar  
     9     4    57 1   
    10     5     6 1   
    11     5     8 ar  
    12     6     7 1   
    13     7    58 1   
    14     7    59 1   
    15     7    60 1   
    16     8     9 ar  
    17     8    61 1   
    18     9    10 ar  
    19     9    62 1   
    20    10    11 1   
    21    11    12 1   
    22    11    63 1   
    23    11    64 1   
    24    12    13 1   
    25    12    65 1   
    26    12    66 1   
    27    13    14 1   
    28    13    50 1   
    29    13    67 1   
    30    14    15 1   
    31    15    16 2   
    32    15    17 1   
    33    17    18 1   
    34    17    22 1   
    35    17    68 1   
    36    18    19 1   
    37    18    69 1   
    38    18    70 1   
    39    19    20 1   
    40    19    71 1   
    41    19    72 1   
    42    20    21 1   
    43    20    73 1   
    44    20    74 1   
    45    21    22 1   
    46    21    75 1   
    47    21    76 1   
    48    22    23 1   
    49    23    24 2   
    50    23    25 1   
    51    25    26 1   
    52    25    32 1   
    53    25    77 1   
    54    26    27 1   
    55    26    31 1   
    56    26    78 1   
    57    27    28 1   
    58    27    79 1   
    59    27    80 1   
    60    28    29 1   
    61    28    81 1   
    62    28    82 1   
    63    29    30 1   
    64    29    83 1   
    65    29    84 1   
    66    30    31 1   
    67    30    85 1   
    68    30    86 1   
    69    31    87 1   
    70    31    88 1   
    71    32    33 ar  
    72    32    34 ar  
    73    33    41 ar  
    74    33    89 1   
    75    34    35 ar  
    76    34    90 1   
    77    35    36 1   
    78    35    38 ar  
    79    36    37 1   
    80    37    91 1   
    81    37    92 1   
    82    37    93 1   
    83    38    39 1   
    84    38    41 ar  
    85    39    40 1   
    86    40    94 1   
    87    40    95 1   
    88    40    96 1   
    89    41    42 1   
    90    42    43 1   
    91    43    44 1   
    92    43    97 1   
    93    43    98 1   
    94    44    45 2   
    95    44    99 1   
    96    45    46 1   
    97    45   100 1   
    98    46    47 1   
    99    46   101 1   
   100    46   102 1   
   101    47    48 1   
   102    48    49 ar  
   103    48    53 ar  
   104    49    50 ar  
   105    49   103 1   
   106    50    51 ar  
   107    51    52 ar  
   108    51   104 1   
   109    52    53 ar  
   110    52   105 1   
   111    53   106 1   
@<TRIPOS>SUBSTRUCTURE
     1 T58         1 TEMP              0 ****  ****    0 ROOT
