@<TRIPOS>MOLECULE
T5A
   80    84     1     0     0
SMALL
No Charge or Current Charge


@<TRIPOS>ATOM
      1 N1B         -0.2600     2.2490    -3.0210 n          1 T5A      -0.306000
      2 C6B         -0.0930     3.5470    -2.5320 cc         1 T5A       0.035600
      3 C2B          0.6840     1.2370    -2.7360 c          1 T5A       0.623000
      4 O2B          0.6280     0.0950    -3.1590 o          1 T5A      -0.531000
      5 N3B          1.7380     1.6140    -1.9660 ns         1 T5A      -0.467500
      6 C4B          2.0080     2.8300    -1.4340 c          1 T5A       0.602200
      7 O4B          3.0050     3.0130    -0.7540 o          1 T5A      -0.580000
      8 C5B          0.9970     3.8650    -1.7510 cd         1 T5A      -0.305400
      9 C7B          1.2310     5.2370    -1.1600 c3         1 T5A      -0.003900
     10 C5E         -2.9630    -1.3700    -4.5260 c3         1 T5A       0.235600
     11 C4E         -2.6120     0.1310    -4.6890 c5         1 T5A       0.168300
     12 O4E         -2.0720     0.6670    -3.4660 os         1 T5A      -0.374000
     13 C1E         -1.4920     1.9390    -3.7960 c5         1 T5A       0.346700
     14 C2E         -1.1200     1.8950    -5.3130 c5         1 T5A      -0.157400
     15 C3E         -1.4640     0.4280    -5.6980 c5         1 T5A       0.118300
     16 O3E         -1.8610     0.3200    -7.0690 oh         1 T5A      -0.698000
     17 PA          -4.3860    -2.8110    -2.8560 p5         1 T5A       1.451800
     18 O1A         -4.0360    -4.0180    -3.6660 o          1 T5A      -0.867000
     19 O2A         -5.8090    -2.8280    -2.4010 o          1 T5A      -0.867000
     20 O5E         -4.1520    -1.4800    -3.7330 os         1 T5A      -0.544400
     21 O3A         -3.3290    -2.4870    -1.7340 os         1 T5A      -0.673800
     22 PB          -3.5990    -3.2010    -0.3570 p5         1 T5A       1.528800
     23 O1B         -3.9740    -4.6390    -0.5130 o          1 T5A      -0.888000
     24 O2X         -4.5770    -2.4070     0.4470 o          1 T5A      -0.888000
     25 O3B         -2.1220    -3.0100     0.1570 os         1 T5A      -0.705800
     26 PC          -1.7900    -3.6740     1.5480 p5         1 T5A       1.532800
     27 O1C         -2.6390    -3.1330     2.6540 o          1 T5A      -0.885000
     28 O2C         -1.8010    -5.1660     1.4640 o          1 T5A      -0.885000
     29 O3C         -0.3410    -3.0540     1.6220 os         1 T5A      -0.699800
     30 PD           0.6730    -3.8800     2.5000 p5         1 T5A       1.519800
     31 O1D          1.2640    -4.9960     1.6960 o          1 T5A      -0.878000
     32 O2D          0.0960    -4.3140     3.8090 o          1 T5A      -0.878000
     33 O3D          1.7110    -2.6990     2.6610 os         1 T5A      -0.685800
     34 PE           2.7880    -2.9650     3.7810 p5         1 T5A       1.451800
     35 O1E          2.3540    -2.5050     5.1350 o          1 T5A      -0.865500
     36 O2E          3.3400    -4.3530     3.8150 o          1 T5A      -0.865500
     37 O5F          3.9430    -1.9900     3.2100 os         1 T5A      -0.566400
     38 C5F          3.9600    -0.5900     3.5290 c3         1 T5A       0.232600
     39 C4F          4.0090     0.2620     2.2210 c5         1 T5A       0.155300
     40 O4F          2.7340     0.2560     1.5280 os         1 T5A      -0.385000
     41 C1F          1.9540     1.4100     1.9250 c5         1 T5A       0.334300
     42 C2F          2.8450     2.2230     2.9280 c5         1 T5A       0.065300
     43 O2F          2.6630     3.6500     2.8770 oh         1 T5A      -0.712000
     44 C3F          4.2780     1.7800     2.4830 c5         1 T5A       0.085300
     45 O3F          4.7650     2.4660     1.3140 oh         1 T5A      -0.721000
     46 N9A          0.6300     0.9780     2.3610 na         1 T5A      -0.319300
     47 C4A         -0.5440     1.0590     1.6610 ca         1 T5A       0.109500
     48 N3A         -0.8390     1.6830     0.5030 nb         1 T5A      -0.318000
     49 C2A         -2.1030     1.5230     0.0470 ca         1 T5A       0.146900
     50 N1A         -3.0810     0.7890     0.6250 nb         1 T5A      -0.303000
     51 C6A         -2.7570     0.1840     1.7790 ca         1 T5A       0.451900
     52 N6A         -3.6930    -0.6410     2.3000 nv         1 T5A      -1.027900
     53 C5A         -1.4740     0.3200     2.3430 ca         1 T5A      -0.068600
     54 N7A         -0.9690    -0.2250     3.5130 nc         1 T5A      -0.447100
     55 C8A          0.3070     0.1910     3.4830 cd         1 T5A       0.390700
     56 HB6         -0.8870     4.2320    -2.8160 h4         1 T5A       0.202000
     57 HN3          2.4090     0.8910    -1.7640 hn         1 T5A       0.331500
     58 HB71         1.2650     5.1940    -0.0650 hc         1 T5A       0.033033
     59 HB72         2.1780     5.6640    -1.5120 hc         1 T5A       0.033033
     60 HB73         0.4300     5.9350    -1.4370 hc         1 T5A       0.033033
     61 HB51        -3.1320    -1.8090    -5.5170 h1         1 T5A       0.015700
     62 HB52        -2.1140    -1.8890    -4.0610 h1         1 T5A       0.015700
     63 HB4         -3.5220     0.6850    -4.9580 h1         1 T5A       0.075700
     64 HB1         -2.2200     2.7370    -3.6010 h2         1 T5A       0.044700
     65 HB21        -1.7300     2.6160    -5.8700 hc         1 T5A       0.038200
     66 HB22        -0.0710     2.1390    -5.5170 hc         1 T5A       0.038200
     67 HB3         -0.6110    -0.2350    -5.4930 h1         1 T5A       0.066700
     68 HB'3        -1.0920     0.6020    -7.6150 ho         1 T5A       0.470000
     69 HA51         3.1000    -0.2960     4.1350 h1         1 T5A      -0.006300
     70 HA52         4.8600    -0.3710     4.1170 h1         1 T5A      -0.006300
     71 HA4          4.7780    -0.1690     1.5670 h1         1 T5A       0.067700
     72 HA1          1.7680     2.0260     1.0400 h2         1 T5A       0.083700
     73 HC2          2.6540     1.8730     3.9530 h1         1 T5A       0.079700
     74 HO2          3.5430     4.0560     3.0980 ho         1 T5A       0.474000
     75 HC3          4.9980     1.9110     3.3010 h1         1 T5A       0.020700
     76 HA3          3.9950     2.6150     0.6910 ho         1 T5A       0.484000
     77 HA2         -2.3560     2.0290    -0.8820 h5         1 T5A      -0.017900
     78 HA61        -4.2600    -1.0850     1.5630 hn         1 T5A       0.554000
     79 HA62        -3.2570    -1.4350     2.7890 hn         1 T5A       0.554000
     80 HA8          1.0470    -0.0480     4.2350 h5         1 T5A       0.092800
@<TRIPOS>BOND
     1     1     2 1   
     2     1     3 1   
     3     1    13 1   
     4     2     8 2   
     5     2    56 1   
     6     3     4 2   
     7     3     5 1   
     8     5     6 1   
     9     5    57 1   
    10     6     7 2   
    11     6     8 1   
    12     8     9 1   
    13     9    58 1   
    14     9    59 1   
    15     9    60 1   
    16    10    11 1   
    17    10    20 1   
    18    10    61 1   
    19    10    62 1   
    20    11    12 1   
    21    11    15 1   
    22    11    63 1   
    23    12    13 1   
    24    13    14 1   
    25    13    64 1   
    26    14    15 1   
    27    14    65 1   
    28    14    66 1   
    29    15    16 1   
    30    15    67 1   
    31    16    68 1   
    32    17    18 1   
    33    17    19 1   
    34    17    20 1   
    35    17    21 1   
    36    21    22 1   
    37    22    23 1   
    38    22    24 1   
    39    22    25 1   
    40    25    26 1   
    41    26    27 1   
    42    26    28 1   
    43    26    29 1   
    44    29    30 1   
    45    30    31 1   
    46    30    32 1   
    47    30    33 1   
    48    33    34 1   
    49    34    35 1   
    50    34    36 1   
    51    34    37 1   
    52    37    38 1   
    53    38    39 1   
    54    38    69 1   
    55    38    70 1   
    56    39    40 1   
    57    39    44 1   
    58    39    71 1   
    59    40    41 1   
    60    41    42 1   
    61    41    46 1   
    62    41    72 1   
    63    42    43 1   
    64    42    44 1   
    65    42    73 1   
    66    43    74 1   
    67    44    45 1   
    68    44    75 1   
    69    45    76 1   
    70    46    47 1   
    71    46    55 1   
    72    47    48 ar  
    73    47    53 ar  
    74    48    49 ar  
    75    49    50 ar  
    76    49    77 1   
    77    50    51 ar  
    78    51    52 1   
    79    51    53 ar  
    80    52    78 1   
    81    52    79 1   
    82    53    54 1   
    83    54    55 2   
    84    55    80 1   
@<TRIPOS>SUBSTRUCTURE
     1 T5A         1 TEMP              0 ****  ****    0 ROOT
