@<TRIPOS>MOLECULE
T5A
   80    84     1     0     0
SMALL
bcc


@<TRIPOS>ATOM
      1 N1B          0.2890     1.8080    -6.7050 n          1 T5A      -0.373000
      2 C6B          1.4270     2.5050    -6.3880 cc         1 T5A       0.085600
      3 C2B          0.3430     0.7120    -7.5350 c          1 T5A       0.832500
      4 O2B         -0.6270     0.0500    -7.8360 o          1 T5A      -0.606500
      5 N3B          1.5950     0.4220    -8.0130 ns         1 T5A      -0.601500
      6 C4B          2.7820     1.0830    -7.7530 c          1 T5A       0.744700
      7 O4B          3.8250     0.7030    -8.2530 o          1 T5A      -0.655500
      8 C5B          2.6510     2.2160    -6.8610 cd         1 T5A      -0.305400
      9 C7B          3.8710     3.0000    -6.5020 c3         1 T5A      -0.003900
     10 C5E         -3.0730    -0.5220    -5.1280 c3         1 T5A       0.212400
     11 C4E         -2.7880     0.9400    -5.3680 c5         1 T5A       0.145100
     12 O4E         -1.4010     1.1900    -5.2230 os         1 T5A      -0.327600
     13 C1E         -0.9790     2.2000    -6.0940 c5         1 T5A       0.323500
     14 C2E         -2.1330     2.4910    -7.0590 c5         1 T5A      -0.157400
     15 C3E         -3.1650     1.3980    -6.7780 c5         1 T5A       0.095100
     16 O3E         -4.5000     1.8350    -6.7710 oh         1 T5A      -0.575800
     17 PA          -3.0210    -2.4000    -3.3070 p5         1 T5A       1.451800
     18 O1A         -2.2050    -3.3130    -4.1670 o          1 T5A      -0.867000
     19 O2A         -4.4860    -2.6430    -3.1210 o          1 T5A      -0.867000
     20 O5E         -2.7750    -0.8430    -3.7870 os         1 T5A      -0.521200
     21 O3A         -2.2770    -2.2010    -1.8630 os         1 T5A      -0.673800
     22 PB          -2.8330    -2.8320    -0.4470 p5         1 T5A       1.528800
     23 O1B         -3.0970    -4.2940    -0.6010 o          1 T5A      -0.888000
     24 O2X         -3.8920    -1.9190     0.1030 o          1 T5A      -0.888000
     25 O3B         -1.4400    -2.5750     0.3790 os         1 T5A      -0.705800
     26 PC          -0.7190    -3.6900     1.3590 p5         1 T5A       1.532800
     27 O1C         -1.6800    -4.0630     2.4520 o          1 T5A      -0.885000
     28 O2C         -0.0660    -4.7530     0.5370 o          1 T5A      -0.885000
     29 O3C          0.4120    -2.6620     1.9480 os         1 T5A      -0.699800
     30 PD           1.9680    -3.1300     2.2230 p5         1 T5A       1.519800
     31 O1D          2.7600    -2.9180     0.9730 o          1 T5A      -0.878000
     32 O2D          1.9910    -4.4360     2.9510 o          1 T5A      -0.878000
     33 O3D          2.3230    -1.9100     3.2790 os         1 T5A      -0.685800
     34 PE           3.4570    -2.1110     4.4470 p5         1 T5A       1.451800
     35 O1E          2.8180    -2.5960     5.7150 o          1 T5A      -0.865500
     36 O2E          4.6480    -2.8070     3.8700 o          1 T5A      -0.865500
     37 O5F          3.8720    -0.5250     4.6200 os         1 T5A      -0.543200
     38 C5F          3.6990     0.1660     5.8320 c3         1 T5A       0.209400
     39 C4F          3.1230     1.5490     5.5710 c5         1 T5A       0.132100
     40 O4F          1.9520     1.4750     4.7630 os         1 T5A      -0.338600
     41 C1F          0.7970     1.6500     5.5380 c5         1 T5A       0.281800
     42 C2F          1.2550     1.6470     6.9980 c5         1 T5A       0.042100
     43 O2F          0.3860     2.4250     7.7680 oh         1 T5A      -0.589800
     44 C3F          2.6770     2.2080     6.8670 c5         1 T5A       0.062100
     45 O3F          2.6520     3.6000     6.6910 oh         1 T5A      -0.598800
     46 N9A         -0.1600     0.6270     5.2110 na         1 T5A      -0.290000
     47 C4A         -1.2790     0.8020     4.4450 ca         1 T5A       0.437800
     48 N3A         -1.8000     1.9420     3.9990 nb         1 T5A      -0.844000
     49 C2A         -2.8680     1.7270     3.2480 ca         1 T5A       0.672900
     50 N1A         -3.4090     0.5670     2.8950 nb         1 T5A      -0.829000
     51 C6A         -2.8630    -0.5770     3.3380 ca         1 T5A       0.780200
     52 N6A         -3.3830    -1.7490     2.9510 nv         1 T5A      -0.917500
     53 C5A         -1.7590    -0.4750     4.2020 ca         1 T5A      -0.199200
     54 N7A         -0.9620    -1.4150     4.8040 nc         1 T5A      -0.447100
     55 C8A         -0.0210    -0.7300     5.3730 cd         1 T5A       0.390700
     56 HB6          1.2760     3.3360    -5.7110 h4         1 T5A       0.152000
     57 HN3          1.6460    -0.3810    -8.6270 hn         1 T5A       0.331500
     58 HB71         4.6100     2.3780    -5.9960 hc         1 T5A       0.033033
     59 HB72         4.3510     3.4160    -7.3880 hc         1 T5A       0.033033
     60 HB73         3.6200     3.8260    -5.8380 hc         1 T5A       0.033033
     61 HB51        -4.1310    -0.7010    -5.3570 h1         1 T5A       0.015700
     62 HB52        -2.4760    -1.1220    -5.8240 h1         1 T5A       0.015700
     63 HB4         -3.3510     1.5480    -4.6440 h1         1 T5A       0.075700
     64 HB1         -0.7350     3.1040    -5.5310 h2         1 T5A       0.044700
     65 HB21        -2.5620     3.4610    -6.8030 hc         1 T5A       0.038200
     66 HB22        -1.8180     2.5360    -8.1000 hc         1 T5A       0.038200
     67 HB3         -3.0330     0.5730    -7.4840 h1         1 T5A       0.066700
     68 HB'3        -4.7890     1.9340    -7.6830 ho         1 T5A       0.371000
     69 HA51         3.0580    -0.3930     6.5190 h1         1 T5A      -0.006300
     70 HA52         4.6650     0.2930     6.3360 h1         1 T5A      -0.006300
     71 HA4          3.8590     2.1630     5.0430 h1         1 T5A       0.067700
     72 HA1          0.3120     2.6030     5.3030 h2         1 T5A       0.083700
     73 HC2          1.3120     0.6190     7.3770 h1         1 T5A       0.079700
     74 HO2          0.4930     2.1850     8.6940 ho         1 T5A       0.375000
     75 HC3          3.3120     1.9150     7.7160 h1         1 T5A       0.020700
     76 HA3          2.0580     3.9710     7.3530 ho         1 T5A       0.385000
     77 HA2         -3.3620     2.6120     2.8580 h5         1 T5A      -0.017900
     78 HA61        -3.8490    -1.7280     2.0440 hn         1 T5A       0.498800
     79 HA62        -2.7690    -2.5620     3.0290 hn         1 T5A       0.498800
     80 HA8          0.8170    -1.1650     5.8970 h5         1 T5A       0.092800
@<TRIPOS>BOND
     1     1     2 1   
     2     1     3 1   
     3     1    13 1   
     4     2     8 2   
     5     2    56 1   
     6     3     4 2   
     7     3     5 1   
     8     5     6 1   
     9     5    57 1   
    10     6     7 2   
    11     6     8 1   
    12     8     9 1   
    13     9    58 1   
    14     9    59 1   
    15     9    60 1   
    16    10    11 1   
    17    10    20 1   
    18    10    61 1   
    19    10    62 1   
    20    11    12 1   
    21    11    15 1   
    22    11    63 1   
    23    12    13 1   
    24    13    14 1   
    25    13    64 1   
    26    14    15 1   
    27    14    65 1   
    28    14    66 1   
    29    15    16 1   
    30    15    67 1   
    31    16    68 1   
    32    17    18 1   
    33    17    19 1   
    34    17    20 1   
    35    17    21 1   
    36    21    22 1   
    37    22    23 1   
    38    22    24 1   
    39    22    25 1   
    40    25    26 1   
    41    26    27 1   
    42    26    28 1   
    43    26    29 1   
    44    29    30 1   
    45    30    31 1   
    46    30    32 1   
    47    30    33 1   
    48    33    34 1   
    49    34    35 1   
    50    34    36 1   
    51    34    37 1   
    52    37    38 1   
    53    38    39 1   
    54    38    69 1   
    55    38    70 1   
    56    39    40 1   
    57    39    44 1   
    58    39    71 1   
    59    40    41 1   
    60    41    42 1   
    61    41    46 1   
    62    41    72 1   
    63    42    43 1   
    64    42    44 1   
    65    42    73 1   
    66    43    74 1   
    67    44    45 1   
    68    44    75 1   
    69    45    76 1   
    70    46    47 1   
    71    46    55 1   
    72    47    48 ar  
    73    47    53 ar  
    74    48    49 ar  
    75    49    50 ar  
    76    49    77 1   
    77    50    51 ar  
    78    51    52 1   
    79    51    53 ar  
    80    52    78 1   
    81    52    79 1   
    82    53    54 1   
    83    54    55 2   
    84    55    80 1   
@<TRIPOS>SUBSTRUCTURE
     1 T5A         1 TEMP              0 ****  ****    0 ROOT
