@<TRIPOS>MOLECULE
T5B
  110   115     1     0     0
SMALL
No Charge or Current Charge


@<TRIPOS>ATOM
      1 CCC         21.5880    -3.6340     1.9530 c3         1 T5B       0.145900
      2 OCB         22.5640    -2.6170     1.6640 os         1 T5B      -0.321100
      3 CBL         23.8850    -2.9150     1.3720 ca         1 T5B       0.114100
      4 CBM         24.3560    -4.2480     1.3290 ca         1 T5B      -0.170000
      5 CBK         24.7790    -1.8480     1.1150 ca         1 T5B       0.111100
      6 OBZ         24.2970    -0.5490     1.1650 os         1 T5B      -0.321100
      7 CCA         25.1340     0.5950     0.9210 c3         1 T5B       0.145900
      8 CBJ         26.1320    -2.1280     0.8170 ca         1 T5B      -0.169000
      9 CBI         26.5860    -3.4560     0.7770 ca         1 T5B      -0.106000
     10 CBC         25.7050    -4.5200     1.0360 ca         1 T5B      -0.082300
     11 CBB         26.2110    -5.9580     1.0120 c3         1 T5B      -0.026100
     12 CAZ         26.1240    -6.6520     2.3940 c3         1 T5B      -0.072400
     13 CAY         26.8080    -5.8650     3.5540 c3         1 T5B       0.221600
     14 OAW         26.9350    -6.7120     4.7120 os         1 T5B      -0.436100
     15 C           25.8400    -7.1290     5.4270 c          1 T5B       0.581100
     16 O           24.6870    -6.9330     5.0680 o          1 T5B      -0.486000
     17 CA          26.2060    -8.2210     6.4760 c6         1 T5B       0.045700
     18 CB          26.9240    -7.5960     7.7100 c6         1 T5B      -0.073400
     19 CAS         28.4120    -7.2930     7.4730 c6         1 T5B      -0.077400
     20 CAT         29.1140    -8.5890     7.0570 c6         1 T5B      -0.095400
     21 CAU         28.4600    -9.2200     5.8090 c6         1 T5B       0.100000
     22 N           26.9660    -9.3930     5.8760 n          1 T5B      -0.395800
     23 CAI         26.2930   -10.2140     4.9260 c          1 T5B       0.623100
     24 OAJ         25.1210    -9.9890     4.6490 o          1 T5B      -0.607100
     25 CAG         27.0490   -11.3760     4.2190 c3         1 T5B      -0.087400
     26 CAH         26.1740   -12.6610     3.9940 c6         1 T5B      -0.045700
     27 CAL         25.6550   -13.2410     5.3450 c6         1 T5B      -0.073900
     28 CAM         24.7930   -14.5090     5.1300 c6         1 T5B      -0.072400
     29 CAN         25.5720   -15.5900     4.3450 c6         1 T5B      -0.075400
     30 CAO         26.0890   -15.0310     2.9980 c6         1 T5B      -0.072400
     31 CAP         26.9500   -13.7620     3.2100 c6         1 T5B      -0.073900
     32 CAF         27.6540   -10.8230     2.9210 ca         1 T5B      -0.009300
     33 CAA         29.0500   -10.7140     2.7780 ca         1 T5B      -0.229000
     34 CAE         26.8230   -10.4130     1.8630 ca         1 T5B      -0.211000
     35 CAD         27.3690    -9.8890     0.6710 ca         1 T5B       0.151100
     36 OBX         26.5590    -9.4980    -0.3820 os         1 T5B      -0.327100
     37 CBY         25.1240    -9.5730    -0.3280 c3         1 T5B       0.142900
     38 CAC         28.7740    -9.7700     0.5420 ca         1 T5B       0.028100
     39 OBV         29.3520    -9.2420    -0.6000 os         1 T5B      -0.326100
     40 CBW         29.1090    -7.8720    -0.9630 c3         1 T5B       0.145900
     41 CAB         29.6130   -10.1910     1.5960 ca         1 T5B       0.165100
     42 OBO         30.9810   -10.0460     1.4520 os         1 T5B      -0.308100
     43 CBP         31.8570    -9.9350     2.5900 c3         1 T5B       0.140600
     44 CBQ         33.2670    -9.4640     2.1180 c3         1 T5B       0.140300
     45 OBT         33.9590   -10.5460     1.4510 oh         1 T5B      -0.657000
     46 CBR         33.2690    -8.2160     1.1720 c3         1 T5B       0.177300
     47 OBU         34.6250    -8.0040     0.7350 oh         1 T5B      -0.668000
     48 CBS         32.7160    -6.9040     1.7980 c3         1 T5B       0.162600
     49 OBN         31.2990    -7.0580     1.9760 os         1 T5B      -0.358100
     50 CBE         30.4800    -6.0600     2.4480 ca         1 T5B       0.133100
     51 CBD         29.1600    -6.4120     2.7500 ca         1 T5B      -0.131000
     52 CBA         28.2400    -5.4510     3.2130 ca         1 T5B      -0.079300
     53 CBH         28.6720    -4.1210     3.3850 ca         1 T5B      -0.119000
     54 CBG         29.9990    -3.7610     3.0880 ca         1 T5B      -0.080000
     55 CBF         30.9080    -4.7280     2.6190 ca         1 T5B      -0.189000
     56 HCL         20.6130    -3.1760     2.1590 h1         1 T5B       0.039033
     57 HCM         21.4710    -4.3150     1.1000 h1         1 T5B       0.039033
     58 HCK         21.8820    -4.2180     2.8340 h1         1 T5B       0.039033
     59 HBM         23.6870    -5.0810     1.5220 ha         1 T5B       0.116000
     60 HCH         24.5490     1.5190     1.0130 h1         1 T5B       0.039033
     61 HCI         25.9550     0.6390     1.6480 h1         1 T5B       0.039033
     62 HCJ         25.5580     0.5600    -0.0910 h1         1 T5B       0.039033
     63 HBJ         26.8440    -1.3330     0.6150 ha         1 T5B       0.118000
     64 HBI         27.6320    -3.6560     0.5520 ha         1 T5B       0.115000
     65 HBB         25.6300    -6.5410     0.2880 hc         1 T5B       0.053200
     66 HCA         27.2470    -5.9940     0.6560 hc         1 T5B       0.053200
     67 HAZ         25.0640    -6.8040     2.6210 hc         1 T5B       0.056700
     68 HB9         26.5650    -7.6510     2.3180 hc         1 T5B       0.056700
     69 HAY         26.2150    -4.9690     3.7880 h1         1 T5B       0.080700
     70 HA          25.2340    -8.5930     6.8270 h1         1 T5B       0.109700
     71 HB2         26.4010    -6.6800     8.0200 hc         1 T5B       0.060700
     72 HB1         26.8340    -8.2900     8.5570 hc         1 T5B       0.060700
     73 HB4         28.8660    -6.9000     8.3930 hc         1 T5B       0.051700
     74 HB3         28.5420    -6.5200     6.7040 hc         1 T5B       0.051700
     75 HB6         29.0790    -9.3090     7.8860 hc         1 T5B       0.047200
     76 HB5         30.1760    -8.3950     6.8590 hc         1 T5B       0.047200
     77 HB8         28.9630   -10.1820     5.6650 h1         1 T5B       0.052700
     78 HB7         28.7000    -8.6040     4.9310 h1         1 T5B       0.052700
     79 HAG         27.8830   -11.6760     4.8570 hc         1 T5B       0.061700
     80 HAH         25.3050   -12.3620     3.3920 hc         1 T5B       0.071700
     81 HAM         26.5050   -13.4840     5.9980 hc         1 T5B       0.041200
     82 HAL         25.0580   -12.4920     5.8820 hc         1 T5B       0.041200
     83 HAO         23.8750   -14.2450     4.5870 hc         1 T5B       0.039950
     84 HAN         24.4750   -14.9120     6.1020 hc         1 T5B       0.039950
     85 HAQ         24.9250   -16.4600     4.1650 hc         1 T5B       0.037200
     86 HAP         26.4180   -15.9490     4.9470 hc         1 T5B       0.037200
     87 HAS         25.2380   -14.7950     2.3440 hc         1 T5B       0.039950
     88 HAR         26.6780   -15.7990     2.4780 hc         1 T5B       0.039950
     89 HAT         27.8690   -14.0280     3.7510 hc         1 T5B       0.041200
     90 HAU         27.2680   -13.3840     2.2290 hc         1 T5B       0.041200
     91 HAA         29.6930   -11.0480     3.5860 ha         1 T5B       0.113000
     92 HAE         25.7480   -10.5030     1.9850 ha         1 T5B       0.140000
     93 HCG         24.6900    -9.2030    -1.2650 h1         1 T5B       0.043367
     94 HBY         24.7930   -10.6090    -0.1850 h1         1 T5B       0.043367
     95 HCF         24.7320    -8.9590     0.4940 h1         1 T5B       0.043367
     96 HCE         29.6940    -7.6070    -1.8520 h1         1 T5B       0.034367
     97 HBW         28.0510    -7.6960    -1.1920 h1         1 T5B       0.034367
     98 HCD         29.4030    -7.2000    -0.1480 h1         1 T5B       0.034367
     99 HBP         31.4600    -9.2040     3.3070 h1         1 T5B       0.041700
    100 HCB         31.9430   -10.8960     3.1120 h1         1 T5B       0.041700
    101 HBQ         33.8270    -9.1910     3.0240 h1         1 T5B       0.041700
    102 HBT         33.9060   -11.3370     2.0330 ho         1 T5B       0.450000
    103 HBR         32.6430    -8.4510     0.3000 h1         1 T5B       0.077700
    104 HBU         34.9940    -8.9170     0.6710 ho         1 T5B       0.469000
    105 HBS         33.2120    -6.7060     2.7570 h1         1 T5B       0.049200
    106 HCC         32.9250    -6.0710     1.1150 h1         1 T5B       0.049200
    107 HBD         28.8560    -7.4470     2.6260 ha         1 T5B       0.136000
    108 HBH         27.9800    -3.3640     3.7480 ha         1 T5B       0.129000
    109 HBG         30.3230    -2.7310     3.2210 ha         1 T5B       0.114000
    110 HBF         31.9260    -4.4290     2.3900 ha         1 T5B       0.119000
@<TRIPOS>BOND
     1     1     2 1   
     2     1    56 1   
     3     1    57 1   
     4     1    58 1   
     5     2     3 1   
     6     3     4 ar  
     7     3     5 ar  
     8     4    10 ar  
     9     4    59 1   
    10     5     6 1   
    11     5     8 ar  
    12     6     7 1   
    13     7    60 1   
    14     7    61 1   
    15     7    62 1   
    16     8     9 ar  
    17     8    63 1   
    18     9    10 ar  
    19     9    64 1   
    20    10    11 1   
    21    11    12 1   
    22    11    65 1   
    23    11    66 1   
    24    12    13 1   
    25    12    67 1   
    26    12    68 1   
    27    13    14 1   
    28    13    52 1   
    29    13    69 1   
    30    14    15 1   
    31    15    16 2   
    32    15    17 1   
    33    17    18 1   
    34    17    22 1   
    35    17    70 1   
    36    18    19 1   
    37    18    71 1   
    38    18    72 1   
    39    19    20 1   
    40    19    73 1   
    41    19    74 1   
    42    20    21 1   
    43    20    75 1   
    44    20    76 1   
    45    21    22 1   
    46    21    77 1   
    47    21    78 1   
    48    22    23 1   
    49    23    24 2   
    50    23    25 1   
    51    25    26 1   
    52    25    32 1   
    53    25    79 1   
    54    26    27 1   
    55    26    31 1   
    56    26    80 1   
    57    27    28 1   
    58    27    81 1   
    59    27    82 1   
    60    28    29 1   
    61    28    83 1   
    62    28    84 1   
    63    29    30 1   
    64    29    85 1   
    65    29    86 1   
    66    30    31 1   
    67    30    87 1   
    68    30    88 1   
    69    31    89 1   
    70    31    90 1   
    71    32    33 ar  
    72    32    34 ar  
    73    33    41 ar  
    74    33    91 1   
    75    34    35 ar  
    76    34    92 1   
    77    35    36 1   
    78    35    38 ar  
    79    36    37 1   
    80    37    93 1   
    81    37    94 1   
    82    37    95 1   
    83    38    39 1   
    84    38    41 ar  
    85    39    40 1   
    86    40    96 1   
    87    40    97 1   
    88    40    98 1   
    89    41    42 1   
    90    42    43 1   
    91    43    44 1   
    92    43    99 1   
    93    43   100 1   
    94    44    45 1   
    95    44    46 1   
    96    44   101 1   
    97    45   102 1   
    98    46    47 1   
    99    46    48 1   
   100    46   103 1   
   101    47   104 1   
   102    48    49 1   
   103    48   105 1   
   104    48   106 1   
   105    49    50 1   
   106    50    51 ar  
   107    50    55 ar  
   108    51    52 ar  
   109    51   107 1   
   110    52    53 ar  
   111    53    54 ar  
   112    53   108 1   
   113    54    55 ar  
   114    54   109 1   
   115    55   110 1   
@<TRIPOS>SUBSTRUCTURE
     1 T5B         1 TEMP              0 ****  ****    0 ROOT
