@<TRIPOS>MOLECULE
T5B
  110   115     1     0     0
SMALL
abcg2


@<TRIPOS>ATOM
      1 CCC         21.5560    -3.8610     0.9920 c3         1 T5B       0.145900
      2 OCB         22.3410    -2.7090     1.2170 os         1 T5B      -0.321100
      3 CBL         23.6810    -2.8320     1.1550 ca         1 T5B       0.114100
      4 CBM         24.3550    -4.0100     0.8850 ca         1 T5B      -0.170000
      5 CBK         24.4140    -1.6470     1.3840 ca         1 T5B       0.111100
      6 OBZ         23.6800    -0.5440     1.6380 os         1 T5B      -0.321100
      7 CCA         24.3660     0.6670     1.8680 c3         1 T5B       0.145900
      8 CBJ         25.7950    -1.6900     1.3300 ca         1 T5B      -0.169000
      9 CBI         26.4580    -2.8880     1.0550 ca         1 T5B      -0.106000
     10 CBC         25.7530    -4.0550     0.8330 ca         1 T5B      -0.082300
     11 CBB         26.4510    -5.3610     0.5650 c3         1 T5B      -0.026100
     12 CAZ         26.2600    -6.3920     1.6780 c3         1 T5B      -0.072400
     13 CAY         26.8020    -5.9190     3.0180 c3         1 T5B       0.221600
     14 OAW         26.5190    -6.9750     3.9600 os         1 T5B      -0.436100
     15 C           26.4200    -6.6720     5.2450 c          1 T5B       0.581100
     16 O           26.4420    -5.5510     5.6830 o          1 T5B      -0.486000
     17 CA          26.2100    -7.9190     6.0990 c6         1 T5B       0.045700
     18 CB          26.5240    -7.6750     7.5730 c6         1 T5B      -0.073400
     19 CAS         28.0180    -7.5460     7.8330 c6         1 T5B      -0.077400
     20 CAT         28.7520    -8.7460     7.2510 c6         1 T5B      -0.095400
     21 CAU         28.4100    -8.9270     5.7800 c6         1 T5B       0.100000
     22 N           26.9720    -9.0440     5.5850 n          1 T5B      -0.395800
     23 CAI         26.3290   -10.0120     4.8860 c          1 T5B       0.623100
     24 OAJ         25.1210    -9.9660     4.6970 o          1 T5B      -0.607100
     25 CAG         27.1550   -11.1560     4.2990 c3         1 T5B      -0.087400
     26 CAH         26.3410   -12.4590     4.2140 c6         1 T5B      -0.045700
     27 CAL         25.9760   -12.9610     5.6140 c6         1 T5B      -0.073900
     28 CAM         25.2090   -14.2780     5.5690 c6         1 T5B      -0.072400
     29 CAN         25.9830   -15.3500     4.8120 c6         1 T5B      -0.075400
     30 CAO         26.3560   -14.8610     3.4180 c6         1 T5B      -0.072400
     31 CAP         27.1230   -13.5440     3.4700 c6         1 T5B      -0.073900
     32 CAF         27.6860   -10.7110     2.9520 ca         1 T5B      -0.009300
     33 CAA         29.0530   -10.7070     2.7160 ca         1 T5B      -0.229000
     34 CAE         26.8020   -10.3510     1.9400 ca         1 T5B      -0.211000
     35 CAD         27.2900   -10.0070     0.6830 ca         1 T5B       0.151100
     36 OBX         26.5170    -9.6620    -0.3620 os         1 T5B      -0.327100
     37 CBY         25.1150    -9.6550    -0.1930 c3         1 T5B       0.142900
     38 CAC         28.6690    -9.9980     0.4400 ca         1 T5B       0.028100
     39 OBV         29.1390    -9.6810    -0.7960 os         1 T5B      -0.326100
     40 CBW         29.3510    -8.2930    -1.0060 c3         1 T5B       0.145900
     41 CAB         29.5510   -10.3350     1.4670 ca         1 T5B       0.165100
     42 OBO         30.8590   -10.2920     1.1630 os         1 T5B      -0.308100
     43 CBP         31.8000   -10.3400     2.2180 c3         1 T5B       0.140600
     44 CBQ         33.1490    -9.8630     1.7160 c3         1 T5B       0.140300
     45 OBT         33.6810   -10.7350     0.7390 oh         1 T5B      -0.657000
     46 CBR         33.1600    -8.4750     1.0650 c3         1 T5B       0.177300
     47 OBU         34.4810    -8.1210     0.7260 oh         1 T5B      -0.668000
     48 CBS         32.6640    -7.3490     1.9620 c3         1 T5B       0.162600
     49 OBN         31.2640    -7.4680     2.0830 os         1 T5B      -0.358100
     50 CBE         30.5300    -6.4520     2.5740 ca         1 T5B       0.133100
     51 CBD         29.1520    -6.6580     2.5800 ca         1 T5B      -0.131000
     52 CBA         28.2890    -5.6660     3.0190 ca         1 T5B      -0.079300
     53 CBH         28.8090    -4.4560     3.4720 ca         1 T5B      -0.119000
     54 CBG         30.1810    -4.2610     3.4840 ca         1 T5B      -0.080000
     55 CBF         31.0530    -5.2500     3.0450 ca         1 T5B      -0.189000
     56 HCL         20.5180    -3.5490     1.0810 h1         1 T5B       0.039033
     57 HCM         21.7130    -4.2760    -0.0070 h1         1 T5B       0.039033
     58 HCK         21.7530    -4.6420     1.7320 h1         1 T5B       0.039033
     59 HBM         23.8000    -4.9230     0.7070 ha         1 T5B       0.116000
     60 HCH         23.6050     1.4240     2.0470 h1         1 T5B       0.039033
     61 HCI         25.0180     0.6120     2.7440 h1         1 T5B       0.039033
     62 HCJ         24.9650     0.9710     1.0040 h1         1 T5B       0.039033
     63 HBJ         26.3820    -0.7980     1.5000 ha         1 T5B       0.118000
     64 HBI         27.5410    -2.8930     1.0200 ha         1 T5B       0.115000
     65 HBB         26.0760    -5.8020    -0.3630 hc         1 T5B       0.053200
     66 HCA         27.5170    -5.1820     0.4080 hc         1 T5B       0.053200
     67 HAZ         25.1960    -6.6170     1.7930 hc         1 T5B       0.056700
     68 HB9         26.7470    -7.3240     1.3850 hc         1 T5B       0.056700
     69 HAY         26.2760    -5.0110     3.3210 h1         1 T5B       0.080700
     70 HA          25.1490    -8.1630     6.0060 h1         1 T5B       0.109700
     71 HB2         25.9820    -6.7950     7.9210 hc         1 T5B       0.060700
     72 HB1         26.1300    -8.5260     8.1340 hc         1 T5B       0.060700
     73 HB4         28.2040    -7.4660     8.9050 hc         1 T5B       0.051700
     74 HB3         28.4030    -6.6280     7.3800 hc         1 T5B       0.051700
     75 HB6         28.4770    -9.6550     7.7940 hc         1 T5B       0.047200
     76 HB5         29.8330    -8.6270     7.3470 hc         1 T5B       0.047200
     77 HB8         28.9190    -9.8010     5.3890 h1         1 T5B       0.052700
     78 HB7         28.7870    -8.0730     5.2030 h1         1 T5B       0.052700
     79 HAG         28.0090   -11.3810     4.9430 hc         1 T5B       0.061700
     80 HAH         25.4170   -12.2640     3.6600 hc         1 T5B       0.071700
     81 HAM         26.9010   -13.1010     6.1870 hc         1 T5B       0.041200
     82 HAL         25.3870   -12.2150     6.1520 hc         1 T5B       0.041200
     83 HAO         24.2430   -14.1160     5.0800 hc         1 T5B       0.039950
     84 HAN         24.9880   -14.6130     6.5860 hc         1 T5B       0.039950
     85 HAQ         25.3970   -16.2700     4.7490 hc         1 T5B       0.037200
     86 HAP         26.8950   -15.6000     5.3650 hc         1 T5B       0.037200
     87 HAS         25.4440   -14.7240     2.8280 hc         1 T5B       0.039950
     88 HAR         26.9510   -15.6150     2.8960 hc         1 T5B       0.039950
     89 HAT         28.0850   -13.7040     3.9740 hc         1 T5B       0.041200
     90 HAU         27.3580   -13.2170     2.4560 hc         1 T5B       0.041200
     91 HAA         29.7260   -11.0140     3.5060 ha         1 T5B       0.113000
     92 HAE         25.7380   -10.3590     2.1350 ha         1 T5B       0.140000
     93 HCG         24.6910    -9.3520    -1.1470 h1         1 T5B       0.043367
     94 HBY         24.7290   -10.6450     0.0650 h1         1 T5B       0.043367
     95 HCF         24.7970    -8.9430     0.5730 h1         1 T5B       0.043367
     96 HCE         29.6680    -8.1700    -2.0410 h1         1 T5B       0.034367
     97 HBW         28.4380    -7.7100    -0.8500 h1         1 T5B       0.034367
     98 HCD         30.1310    -7.8990    -0.3520 h1         1 T5B       0.034367
     99 HBP         31.4820    -9.7250     3.0640 h1         1 T5B       0.041700
    100 HCB         31.9030   -11.3660     2.5930 h1         1 T5B       0.041700
    101 HBQ         33.8010    -9.8190     2.6010 h1         1 T5B       0.041700
    102 HBT         33.9940   -11.5360     1.1710 ho         1 T5B       0.450000
    103 HBR         32.5240    -8.4970     0.1680 h1         1 T5B       0.077700
    104 HBU         34.8670    -8.8640     0.2470 ho         1 T5B       0.469000
    105 HBS         33.1460    -7.3840     2.9470 h1         1 T5B       0.049200
    106 HCC         32.9340    -6.3990     1.4890 h1         1 T5B       0.049200
    107 HBD         28.7710    -7.6080     2.2220 ha         1 T5B       0.136000
    108 HBH         28.1440    -3.6740     3.8150 ha         1 T5B       0.129000
    109 HBG         30.5880    -3.3260     3.8450 ha         1 T5B       0.114000
    110 HBF         32.1190    -5.0690     3.0740 ha         1 T5B       0.119000
@<TRIPOS>BOND
     1     1     2 1   
     2     1    56 1   
     3     1    57 1   
     4     1    58 1   
     5     2     3 1   
     6     3     4 ar  
     7     3     5 ar  
     8     4    10 ar  
     9     4    59 1   
    10     5     6 1   
    11     5     8 ar  
    12     6     7 1   
    13     7    60 1   
    14     7    61 1   
    15     7    62 1   
    16     8     9 ar  
    17     8    63 1   
    18     9    10 ar  
    19     9    64 1   
    20    10    11 1   
    21    11    12 1   
    22    11    65 1   
    23    11    66 1   
    24    12    13 1   
    25    12    67 1   
    26    12    68 1   
    27    13    14 1   
    28    13    52 1   
    29    13    69 1   
    30    14    15 1   
    31    15    16 2   
    32    15    17 1   
    33    17    18 1   
    34    17    22 1   
    35    17    70 1   
    36    18    19 1   
    37    18    71 1   
    38    18    72 1   
    39    19    20 1   
    40    19    73 1   
    41    19    74 1   
    42    20    21 1   
    43    20    75 1   
    44    20    76 1   
    45    21    22 1   
    46    21    77 1   
    47    21    78 1   
    48    22    23 1   
    49    23    24 2   
    50    23    25 1   
    51    25    26 1   
    52    25    32 1   
    53    25    79 1   
    54    26    27 1   
    55    26    31 1   
    56    26    80 1   
    57    27    28 1   
    58    27    81 1   
    59    27    82 1   
    60    28    29 1   
    61    28    83 1   
    62    28    84 1   
    63    29    30 1   
    64    29    85 1   
    65    29    86 1   
    66    30    31 1   
    67    30    87 1   
    68    30    88 1   
    69    31    89 1   
    70    31    90 1   
    71    32    33 ar  
    72    32    34 ar  
    73    33    41 ar  
    74    33    91 1   
    75    34    35 ar  
    76    34    92 1   
    77    35    36 1   
    78    35    38 ar  
    79    36    37 1   
    80    37    93 1   
    81    37    94 1   
    82    37    95 1   
    83    38    39 1   
    84    38    41 ar  
    85    39    40 1   
    86    40    96 1   
    87    40    97 1   
    88    40    98 1   
    89    41    42 1   
    90    42    43 1   
    91    43    44 1   
    92    43    99 1   
    93    43   100 1   
    94    44    45 1   
    95    44    46 1   
    96    44   101 1   
    97    45   102 1   
    98    46    47 1   
    99    46    48 1   
   100    46   103 1   
   101    47   104 1   
   102    48    49 1   
   103    48   105 1   
   104    48   106 1   
   105    49    50 1   
   106    50    51 ar  
   107    50    55 ar  
   108    51    52 ar  
   109    51   107 1   
   110    52    53 ar  
   111    53    54 ar  
   112    53   108 1   
   113    54    55 ar  
   114    54   109 1   
   115    55   110 1   
@<TRIPOS>SUBSTRUCTURE
     1 T5B         1 TEMP              0 ****  ****    0 ROOT
