@<TRIPOS>MOLECULE
T5D
   28    29     1     0     0
SMALL
No Charge or Current Charge


@<TRIPOS>ATOM
      1 C4           3.5020     0.2990     0.1020 ca         1 T5D      -0.170000
      2 C5           2.8490    -0.6240     0.9280 ca         1 T5D      -0.075000
      3 C6           1.4510    -0.7140     0.8450 ca         1 T5D      -0.142000
      4 C7          -1.4140    -0.1050     1.2900 c5         1 T5D      -0.068400
      5 C8          -2.9060     0.2910     1.0830 c5         1 T5D      -0.082900
      6 C10         -1.3900     1.4210    -0.5020 c5         1 T5D      -0.068400
      7 N            1.3900     0.9970    -0.8520 nb         1 T5D      -0.685000
      8 C           -1.2440    -1.1130    -1.1490 c3         1 T5D       0.168600
      9 O           -0.7970    -2.3990    -0.7020 oh         1 T5D      -0.663000
     10 C1          -0.8150     0.0050    -0.1540 c5         1 T5D      -0.099300
     11 C2           0.7290     0.1200    -0.0450 ca         1 T5D       0.375300
     12 C3           2.7370     1.0840    -0.7720 ca         1 T5D       0.339900
     13 C9          -2.8900     1.3060    -0.1030 c5         1 T5D      -0.082900
     14 H4           4.5830     0.4060     0.1280 ha         1 T5D       0.121000
     15 H5           3.4110    -1.2590     1.6110 ha         1 T5D       0.116000
     16 H6           0.9320    -1.4400     1.4620 ha         1 T5D       0.126000
     17 H7          -0.9240     0.5880     1.9860 hc         1 T5D       0.052450
     18 H8          -1.3240    -1.1080     1.7220 hc         1 T5D       0.052450
     19 H9          -3.5170    -0.5860     0.8370 hc         1 T5D       0.042200
     20 H10         -3.3350     0.7270     1.9930 hc         1 T5D       0.042200
     21 H14         -0.9050     2.2150     0.0800 hc         1 T5D       0.052450
     22 H13         -1.2670     1.6830    -1.5600 hc         1 T5D       0.052450
     23 H2          -0.8170    -0.8870    -2.1350 h1         1 T5D       0.026700
     24 H1          -2.3360    -1.1180    -1.2600 h1         1 T5D       0.026700
     25 H           -1.1080    -3.0550    -1.3640 ho         1 T5D       0.442000
     26 H3           3.2160     1.8050    -1.4330 h4         1 T5D       0.014100
     27 H11         -3.4980     0.9390    -0.9390 hc         1 T5D       0.042200
     28 H12         -3.3050     2.2790     0.1830 hc         1 T5D       0.042200
@<TRIPOS>BOND
     1     1     2 ar  
     2     1    12 ar  
     3     1    14 1   
     4     2     3 ar  
     5     2    15 1   
     6     3    11 ar  
     7     3    16 1   
     8     4     5 1   
     9     4    10 1   
    10     4    17 1   
    11     4    18 1   
    12     5    13 1   
    13     5    19 1   
    14     5    20 1   
    15     6    10 1   
    16     6    13 1   
    17     6    21 1   
    18     6    22 1   
    19     7    11 ar  
    20     7    12 ar  
    21     8     9 1   
    22     8    10 1   
    23     8    23 1   
    24     8    24 1   
    25     9    25 1   
    26    10    11 1   
    27    12    26 1   
    28    13    27 1   
    29    13    28 1   
@<TRIPOS>SUBSTRUCTURE
     1 T5D         1 TEMP              0 ****  ****    0 ROOT
