@<TRIPOS>MOLECULE
T5D
   28    29     1     0     0
SMALL
abcg2


@<TRIPOS>ATOM
      1 C4           3.4220     0.3020     0.0920 ca         1 T5D      -0.170000
      2 C5           2.7630    -0.3280     1.1350 ca         1 T5D      -0.075000
      3 C6           1.3820    -0.4390     1.0890 ca         1 T5D      -0.142000
      4 C7          -1.5490    -0.3240     1.1750 c5         1 T5D      -0.068400
      5 C8          -2.9610     0.2020     0.9460 c5         1 T5D      -0.082900
      6 C10         -1.4600     1.3120    -0.6270 c5         1 T5D      -0.068400
      7 N            1.3330     0.6880    -1.0020 nb         1 T5D      -0.685000
      8 C           -1.0990    -1.0950    -1.1860 c3         1 T5D       0.168600
      9 O           -0.5430    -2.3180    -0.7700 oh         1 T5D      -0.663000
     10 C1          -0.8110    -0.0140    -0.1390 c5         1 T5D      -0.099300
     11 C2           0.6920     0.0910     0.0010 ca         1 T5D       0.375300
     12 C3           2.6540     0.7900    -0.9540 ca         1 T5D       0.339900
     13 C9          -2.7190     1.5300     0.2310 c5         1 T5D      -0.082900
     14 H4           4.4980     0.4140     0.0840 ha         1 T5D       0.121000
     15 H5           3.3140    -0.7320     1.9740 ha         1 T5D       0.116000
     16 H6           0.8510    -0.9320     1.8910 ha         1 T5D       0.126000
     17 H7          -1.0940     0.2360     1.9980 hc         1 T5D       0.052450
     18 H8          -1.5150    -1.3800     1.4470 hc         1 T5D       0.052450
     19 H9          -3.5310    -0.4820     0.3110 hc         1 T5D       0.042200
     20 H10         -3.5230     0.3160     1.8740 hc         1 T5D       0.042200
     21 H14         -0.7670     2.1470    -0.5300 hc         1 T5D       0.052450
     22 H13         -1.7080     1.2480    -1.6890 hc         1 T5D       0.052450
     23 H2          -0.6760    -0.7630    -2.1440 h1         1 T5D       0.026700
     24 H1          -2.1850    -1.1760    -1.3290 h1         1 T5D       0.026700
     25 H           -0.7790    -2.9900    -1.4170 ho         1 T5D       0.442000
     26 H3           3.1290     1.2870    -1.7940 h4         1 T5D       0.014100
     27 H11         -3.5770     1.8560    -0.3590 hc         1 T5D       0.042200
     28 H12         -2.5330     2.3100     0.9730 hc         1 T5D       0.042200
@<TRIPOS>BOND
     1     1     2 ar  
     2     1    12 ar  
     3     1    14 1   
     4     2     3 ar  
     5     2    15 1   
     6     3    11 ar  
     7     3    16 1   
     8     4     5 1   
     9     4    10 1   
    10     4    17 1   
    11     4    18 1   
    12     5    13 1   
    13     5    19 1   
    14     5    20 1   
    15     6    10 1   
    16     6    13 1   
    17     6    21 1   
    18     6    22 1   
    19     7    11 ar  
    20     7    12 ar  
    21     8     9 1   
    22     8    10 1   
    23     8    23 1   
    24     8    24 1   
    25     9    25 1   
    26    10    11 1   
    27    12    26 1   
    28    13    27 1   
    29    13    28 1   
@<TRIPOS>SUBSTRUCTURE
     1 T5D         1 TEMP              0 ****  ****    0 ROOT
