@<TRIPOS>MOLECULE
T5E
  146   153     1     0     0
SMALL
abcg2


@<TRIPOS>ATOM
      1 CAD          9.1110    10.1420    -0.2800 c3         1 T5E       0.152600
      2 CAB         10.8870    -8.7590     0.0440 c3         1 T5E       0.153600
      3 CAC         -9.2410    -9.1000     0.8170 c3         1 T5E       0.152600
      4 OAF          0.4730     3.9940     1.0310 o          1 T5E      -0.523500
      5 OAG         -3.9900    -1.1060    -0.8680 o          1 T5E      -0.574000
      6 OAH          3.9090     1.0760     0.8930 o          1 T5E      -0.574000
      7 CAI          1.3090    -2.1100    -0.2440 ca         1 T5E      -0.112000
      8 CAJ         -1.3940     2.0730     0.3000 ca         1 T5E      -0.112000
      9 CAK         -5.6520     2.8110    -0.2790 c3         1 T5E      -0.095900
     10 CAL          5.6000    -2.7810     0.2070 c3         1 T5E      -0.095900
     11 CAM         -6.2550     4.1730     0.0380 c3         1 T5E      -0.076400
     12 CAN          6.2260    -4.1530    -0.0030 c3         1 T5E      -0.076400
     13 CAO         -4.7090    -5.4660    -0.6980 c3         1 T5E      -0.073900
     14 CAP          4.6340     5.4160     0.6080 c3         1 T5E      -0.073900
     15 CAQ         -3.8000    -4.3400    -0.2240 c3         1 T5E      -0.093900
     16 CAR          3.6910     4.2930     0.1960 c3         1 T5E      -0.093900
     17 CAS         -4.1650     2.7720     0.0360 c3         1 T5E       0.225800
     18 CAT          4.0910    -2.8040     0.0300 c3         1 T5E       0.225800
     19 CAU         -7.7320     4.2350    -0.3280 c3         1 T5E       0.172300
     20 CAV          7.7410    -4.0990     0.1500 c3         1 T5E       0.172300
     21 CAW         -5.3150    -6.2260     0.4750 c3         1 T5E       0.169300
     22 CAX          5.1750     6.1440    -0.6150 c3         1 T5E       0.169300
     23 CAY         -8.5930     7.8600     0.1510 c6         1 T5E       0.163800
     24 CAZ        -10.5270     6.5500     0.5740 c6         1 T5E       0.163800
     25 CBA         10.4550    -6.5270    -0.7140 c6         1 T5E       0.163800
     26 CBB          8.8280    -7.6650     0.5910 c6         1 T5E       0.163800
     27 CBC         -7.8380    -8.5360    -1.0830 c6         1 T5E       0.162800
     28 CBD         -6.8700    -9.6150     0.7930 c6         1 T5E       0.162800
     29 CBE          8.1110     8.1480     0.5920 c6         1 T5E       0.162800
     30 CBF          7.0110     9.3610    -1.1250 c6         1 T5E       0.162800
     31 CBG         -7.9000     6.6480    -0.4420 c6         1 T5E       0.165550
     32 CBH         -9.8350     5.3400    -0.0240 c6         1 T5E       0.165550
     33 CBI          9.8150    -5.2010    -0.3510 c6         1 T5E       0.165550
     34 CBJ          8.1840    -6.3370     0.9430 c6         1 T5E       0.165550
     35 CBK         -7.2180    -7.2110    -0.6490 c6         1 T5E       0.146800
     36 CBL         -6.2540    -8.2950     1.2410 c6         1 T5E       0.146800
     37 CBM          7.2920     6.9180     0.2490 c6         1 T5E       0.146800
     38 CBN          6.1960     8.1310    -1.4700 c6         1 T5E       0.146800
     39 CBO         -3.1860    -3.5940    -1.4000 c3         1 T5E       0.092500
     40 CBP          3.1110     3.5700     1.4030 c3         1 T5E       0.092500
     41 NBQ         -3.6360     1.4520    -0.2270 nu         1 T5E      -0.955700
     42 NBR          3.5570    -1.4760     0.2380 nu         1 T5E      -0.955700
     43 CBS         -2.3510     1.0960    -0.0910 ca         1 T5E       0.403500
     44 CBT          2.2680    -1.1290     0.1300 ca         1 T5E       0.403500
     45 CBU         -0.9390    -2.8920    -0.7940 c          1 T5E       0.583600
     46 CBV          0.8530     2.8550     0.8500 c          1 T5E       0.583600
     47 CBW         -2.7850    -1.2770    -0.7330 c          1 T5E       0.608600
     48 CBX          2.7030     1.2460     0.7670 c          1 T5E       0.608600
     49 CBY         -0.0160    -1.8120    -0.3900 ca         1 T5E      -0.095100
     50 CBZ         -0.0690     1.7750     0.4460 ca         1 T5E      -0.095100
     51 CCA         -1.8770    -0.2150    -0.3260 ca         1 T5E      -0.255600
     52 CCB          1.7940     0.1810     0.3690 ca         1 T5E      -0.255600
     53 CCC         -0.5060    -0.5070    -0.1690 ca         1 T5E       0.004500
     54 CCD          0.4220     0.4720     0.2170 ca         1 T5E       0.004500
     55 NCE        -10.0280     7.7720    -0.0220 n3         1 T5E      -0.718100
     56 NCF         10.2450    -7.5000     0.3390 n3         1 T5E      -0.718100
     57 NCG         -8.0860    -9.4530     0.0160 n3         1 T5E      -0.715600
     58 NCH          8.2970     8.9850    -0.5760 n3         1 T5E      -0.715600
     59 NCI         -8.3990     5.4270     0.1600 n3         1 T5E      -0.722600
     60 NCJ          8.3930    -5.3670    -0.1150 n3         1 T5E      -0.722600
     61 NCK         -5.9880    -7.4510     0.0890 n3         1 T5E      -0.717600
     62 NCL          6.0030     7.2940    -0.3010 n3         1 T5E      -0.717600
     63 NCM         -2.2580    -2.5400    -0.9810 n          1 T5E      -0.363400
     64 NCN          2.1760     2.5080     1.0180 n          1 T5E      -0.363400
     65 HDA          8.6620    10.8060     0.4750 h1         1 T5E       0.029367
     66 HDAA        10.0880     9.8290     0.0920 h1         1 T5E       0.029367
     67 HDAB         9.2710    10.7290    -1.1860 h1         1 T5E       0.029367
     68 HAA        -10.5690     9.0690     1.5840 h1         1 T5E       0.030533
     69 HAAA       -10.3350     9.8370     0.0050 h1         1 T5E       0.030533
     70 HAAB       -11.7760     8.8650     0.3060 h1         1 T5E       0.030533
     71 HAB         11.9580    -8.6090    -0.0990 h1         1 T5E       0.030533
     72 HABA        10.7540    -9.4500     0.8770 h1         1 T5E       0.030533
     73 HABB        10.4930    -9.2460    -0.8620 h1         1 T5E       0.030533
     74 HAC         -9.1840    -8.1290     1.3260 h1         1 T5E       0.029367
     75 HACA       -10.1310    -9.0830     0.1850 h1         1 T5E       0.029367
     76 HACB        -9.3970    -9.8610     1.5840 h1         1 T5E       0.029367
     77 HAI          1.6340    -3.1240    -0.4260 ha         1 T5E       0.144000
     78 HAJ         -1.7200     3.0850     0.4920 ha         1 T5E       0.144000
     79 HAK         -6.1660     2.0370     0.2990 hc         1 T5E       0.051950
     80 HAKA        -5.8030     2.5710    -1.3360 hc         1 T5E       0.051950
     81 HAL          5.8390    -2.4160     1.2110 hc         1 T5E       0.051950
     82 HALA         6.0330    -2.0660    -0.5000 hc         1 T5E       0.051950
     83 HAM         -6.1440     4.3890     1.1050 hc         1 T5E       0.049950
     84 HAMA        -5.6940     4.9410    -0.5000 hc         1 T5E       0.049950
     85 HAN          5.7870    -4.8600     0.7060 hc         1 T5E       0.049950
     86 HANA         5.9870    -4.5240    -1.0040 hc         1 T5E       0.049950
     87 HAO         -5.4930    -5.0510    -1.3380 hc         1 T5E       0.048450
     88 HAOA        -4.1390    -6.1690    -1.3130 hc         1 T5E       0.048450
     89 HAP          4.1080     6.1330     1.2450 hc         1 T5E       0.048450
     90 HAPA         5.4510     5.0030     1.2070 hc         1 T5E       0.048450
     91 HAQ         -4.3620    -3.6420     0.4020 hc         1 T5E       0.049950
     92 HAQA        -3.0050    -4.7550     0.4010 hc         1 T5E       0.049950
     93 HAR          2.8770     4.7060    -0.4070 hc         1 T5E       0.049950
     94 HARA         4.2230     3.5790    -0.4380 hc         1 T5E       0.049950
     95 HAS         -3.6480     3.5190    -0.5750 h1         1 T5E       0.047200
     96 HASA        -4.0050     3.0520     1.0830 h1         1 T5E       0.047200
     97 HAT          3.8460    -3.1620    -0.9750 h1         1 T5E       0.047200
     98 HATA         3.6480    -3.5130     0.7380 h1         1 T5E       0.047200
     99 HAU         -7.8410     4.1260    -1.4220 h1         1 T5E       0.031200
    100 HAUA        -8.2360     3.3720     0.1170 h1         1 T5E       0.031200
    101 HAV          8.1300    -3.3690    -0.5660 h1         1 T5E       0.031200
    102 HAVA         7.9980    -3.7120     1.1520 h1         1 T5E       0.031200
    103 HAW         -4.5060    -6.4980     1.1600 h1         1 T5E       0.029450
    104 HAWA        -5.9840    -5.5540     1.0430 h1         1 T5E       0.029450
    105 HAX          5.7110     5.4260    -1.2620 h1         1 T5E       0.029450
    106 HAXA         4.3230     6.5020    -1.2020 h1         1 T5E       0.029450
    107 HAY         -8.3170     7.9460     1.2170 h1         1 T5E       0.037825
    108 HAYA        -8.2260     8.7610    -0.3470 h1         1 T5E       0.037825
    109 HAZ        -11.6030     6.4750     0.3920 h1         1 T5E       0.037825
    110 HAZA       -10.3850     6.5420     1.6690 h1         1 T5E       0.037825
    111 HBA         10.0450    -6.8750    -1.6790 h1         1 T5E       0.037825
    112 HBAA        11.5280    -6.3800    -0.8570 h1         1 T5E       0.037825
    113 HBB          8.6920    -8.3610     1.4220 h1         1 T5E       0.037825
    114 HBBA         8.3070    -8.0980    -0.2820 h1         1 T5E       0.037825
    115 HBC         -8.7730    -8.3500    -1.6160 h1         1 T5E       0.047325
    116 HBCA        -7.1540    -9.0220    -1.7870 h1         1 T5E       0.047325
    117 HBD         -6.1360   -10.1450     0.1750 h1         1 T5E       0.047325
    118 HBDA        -7.0760   -10.2450     1.6610 h1         1 T5E       0.047325
    119 HBE          7.6150     8.6990     1.4110 h1         1 T5E       0.047325
    120 HBEA         9.0880     7.8310     0.9650 h1         1 T5E       0.047325
    121 HBF          7.1650     9.9530    -2.0320 h1         1 T5E       0.047325
    122 HBFA         6.4360     9.9890    -0.4210 h1         1 T5E       0.047325
    123 HBG         -8.0400     6.6470    -1.5380 h1         1 T5E       0.037200
    124 HBGA        -6.8290     6.7430    -0.2580 h1         1 T5E       0.037200
    125 HBH        -10.2060     4.4390     0.4700 h1         1 T5E       0.037200
    126 HBHA       -10.1060     5.2580    -1.0910 h1         1 T5E       0.037200
    127 HBI         10.3310    -4.7800     0.5290 h1         1 T5E       0.037200
    128 HBIA         9.9590    -4.4990    -1.1750 h1         1 T5E       0.037200
    129 HBJ          7.1150    -6.5000     1.0900 h1         1 T5E       0.037200
    130 HBJA         8.5910    -5.9780     1.9050 h1         1 T5E       0.037200
    131 HBK         -7.0060    -6.6170    -1.5400 h1         1 T5E       0.035575
    132 HBKA        -7.9390    -6.6310    -0.0430 h1         1 T5E       0.035575
    133 HBL         -6.9170    -7.7940     1.9690 h1         1 T5E       0.035575
    134 HBLA        -5.3130    -8.4980     1.7590 h1         1 T5E       0.035575
    135 HBM          7.8620     6.2900    -0.4590 h1         1 T5E       0.035575
    136 HBMA         7.1520     6.3300     1.1580 h1         1 T5E       0.035575
    137 HBN          5.2200     8.4470    -1.8470 h1         1 T5E       0.035575
    138 HBNA         6.6960     7.5810    -2.2860 h1         1 T5E       0.035575
    139 HBO         -2.6400    -4.2840    -2.0400 h1         1 T5E       0.069450
    140 HBOA        -3.9620    -3.1370    -2.0090 h1         1 T5E       0.069450
    141 HBP          3.9010     3.1230     2.0010 h1         1 T5E       0.069450
    142 HBPA         2.5770     4.2680     2.0440 h1         1 T5E       0.069450
    143 HNBQ        -4.2790     0.7110    -0.4620 hn         1 T5E       0.534500
    144 HNBR         4.1910    -0.7380     0.5110 hn         1 T5E       0.534500
    145 OAE         -0.5620    -4.0340    -0.9630 o          1 T5E      -0.523500
    146 CAA        -10.7040     8.9370     0.4990 c3         1 T5E       0.153600
@<TRIPOS>BOND
     1     1    58 1   
     2     1    65 1   
     3     1    66 1   
     4     1    67 1   
     5     2    56 1   
     6     2    71 1   
     7     2    72 1   
     8     2    73 1   
     9     3    57 1   
    10     3    74 1   
    11     3    75 1   
    12     3    76 1   
    13     4    46 2   
    14     5    47 2   
    15     6    48 2   
    16     7    44 ar  
    17     7    49 ar  
    18     7    77 1   
    19     8    43 ar  
    20     8    50 ar  
    21     8    78 1   
    22     9    11 1   
    23     9    17 1   
    24     9    79 1   
    25     9    80 1   
    26    10    12 1   
    27    10    18 1   
    28    10    81 1   
    29    10    82 1   
    30    11    19 1   
    31    11    83 1   
    32    11    84 1   
    33    12    20 1   
    34    12    85 1   
    35    12    86 1   
    36    13    15 1   
    37    13    21 1   
    38    13    87 1   
    39    13    88 1   
    40    14    16 1   
    41    14    22 1   
    42    14    89 1   
    43    14    90 1   
    44    15    39 1   
    45    15    91 1   
    46    15    92 1   
    47    16    40 1   
    48    16    93 1   
    49    16    94 1   
    50    17    41 1   
    51    17    95 1   
    52    17    96 1   
    53    18    42 1   
    54    18    97 1   
    55    18    98 1   
    56    19    59 1   
    57    19    99 1   
    58    19   100 1   
    59    20    60 1   
    60    20   101 1   
    61    20   102 1   
    62    21    61 1   
    63    21   103 1   
    64    21   104 1   
    65    22    62 1   
    66    22   105 1   
    67    22   106 1   
    68    23    31 1   
    69    23    55 1   
    70    23   107 1   
    71    23   108 1   
    72    24    32 1   
    73    24    55 1   
    74    24   109 1   
    75    24   110 1   
    76    25    33 1   
    77    25    56 1   
    78    25   111 1   
    79    25   112 1   
    80    26    34 1   
    81    26    56 1   
    82    26   113 1   
    83    26   114 1   
    84    27    35 1   
    85    27    57 1   
    86    27   115 1   
    87    27   116 1   
    88    28    36 1   
    89    28    57 1   
    90    28   117 1   
    91    28   118 1   
    92    29    37 1   
    93    29    58 1   
    94    29   119 1   
    95    29   120 1   
    96    30    38 1   
    97    30    58 1   
    98    30   121 1   
    99    30   122 1   
   100    31    59 1   
   101    31   123 1   
   102    31   124 1   
   103    32    59 1   
   104    32   125 1   
   105    32   126 1   
   106    33    60 1   
   107    33   127 1   
   108    33   128 1   
   109    34    60 1   
   110    34   129 1   
   111    34   130 1   
   112    35    61 1   
   113    35   131 1   
   114    35   132 1   
   115    36    61 1   
   116    36   133 1   
   117    36   134 1   
   118    37    62 1   
   119    37   135 1   
   120    37   136 1   
   121    38    62 1   
   122    38   137 1   
   123    38   138 1   
   124    39    63 1   
   125    39   139 1   
   126    39   140 1   
   127    40    64 1   
   128    40   141 1   
   129    40   142 1   
   130    41    43 1   
   131    41   143 1   
   132    42    44 1   
   133    42   144 1   
   134    43    51 ar  
   135    44    52 ar  
   136    45    49 1   
   137    45    63 1   
   138    45   145 2   
   139    46    50 1   
   140    46    64 1   
   141    47    51 1   
   142    47    63 1   
   143    48    52 1   
   144    48    64 1   
   145    49    53 ar  
   146    50    54 ar  
   147    51    53 ar  
   148    52    54 ar  
   149    53    54 ar  
   150    55   146 1   
   151    68   146 1   
   152    69   146 1   
   153    70   146 1   
@<TRIPOS>SUBSTRUCTURE
     1 T5E         1 TEMP              0 ****  ****    0 ROOT
