@<TRIPOS>MOLECULE
T5E
  146   153     1     0     0
SMALL
No Charge or Current Charge


@<TRIPOS>ATOM
      1 CAD          9.5910    10.3180     0.1600 c3         1 T5E       0.152600
      2 CAB         11.2730    -8.7300     0.5470 c3         1 T5E       0.153600
      3 CAC         -9.6100    -8.7540     1.2450 c3         1 T5E       0.152600
      4 OAF          0.7740     3.8060     1.5370 o          1 T5E      -0.523500
      5 OAG         -4.1200    -1.0030    -0.3850 o          1 T5E      -0.574000
      6 OAH          4.1230     0.9520     0.3160 o          1 T5E      -0.574000
      7 CAI          1.2620    -2.0410    -0.8620 ca         1 T5E      -0.112000
      8 CAJ         -1.2580     1.9900     0.7940 ca         1 T5E      -0.112000
      9 CAK         -5.6890     2.7140     0.4620 c3         1 T5E      -0.095900
     10 CAL          5.6920    -2.7650    -0.5300 c3         1 T5E      -0.095900
     11 CAM         -6.3590     4.0950     0.2850 c3         1 T5E      -0.076400
     12 CAN          6.3630    -4.1460    -0.3530 c3         1 T5E      -0.076400
     13 CAO         -4.9600    -5.4450    -0.7350 c3         1 T5E      -0.073900
     14 CAP          4.9620     5.3940     0.6660 c3         1 T5E      -0.073900
     15 CAQ         -3.9040    -4.4080    -0.2930 c3         1 T5E      -0.093900
     16 CAR          3.9070     4.3560     0.2240 c3         1 T5E      -0.093900
     17 CAS         -4.1510     2.7800     0.3950 c3         1 T5E       0.225800
     18 CAT          4.1550    -2.8320    -0.4630 c3         1 T5E       0.225800
     19 CAU         -7.9020     4.0260     0.3530 c3         1 T5E       0.172300
     20 CAV          7.9060    -4.0780    -0.4210 c3         1 T5E       0.172300
     21 CAW         -5.3750    -6.4020     0.4070 c3         1 T5E       0.169300
     22 CAX          5.3760     6.3520    -0.4760 c3         1 T5E       0.169300
     23 CAY         -9.1070     7.5080    -0.8990 c6         1 T5E       0.163800
     24 CAZ        -10.7740     6.6060     0.6480 c6         1 T5E       0.163800
     25 CBA         10.7770    -6.6570    -0.7140 c6         1 T5E       0.163800
     26 CBB          9.1110    -7.5580     0.8350 c6         1 T5E       0.163800
     27 CBC         -8.5260    -8.2500    -0.9380 c6         1 T5E       0.162800
     28 CBD         -7.3860    -9.7030     0.6540 c6         1 T5E       0.162800
     29 CBE          8.5260     8.1980     0.8680 c6         1 T5E       0.162800
     30 CBF          7.3760     9.6560    -0.7260 c6         1 T5E       0.162800
     31 CBG         -8.3770     6.1250    -0.9240 c6         1 T5E       0.165550
     32 CBH        -10.0490     5.2210     0.6200 c6         1 T5E       0.165550
     33 CBI         10.0520    -5.2730    -0.6870 c6         1 T5E       0.165550
     34 CBJ          8.3810    -6.1750     0.8580 c6         1 T5E       0.165550
     35 CBK         -7.6070    -7.0530    -0.5210 c6         1 T5E       0.146800
     36 CBL         -6.4600    -8.5160     1.0860 c6         1 T5E       0.146800
     37 CBM          7.6110     7.0050     0.4400 c6         1 T5E       0.146800
     38 CBN          6.4650     8.4620    -1.1580 c6         1 T5E       0.146800
     39 CBO         -3.4890    -3.4500    -1.4300 c3         1 T5E       0.092500
     40 CBP          3.4930     3.3980     1.3610 c3         1 T5E       0.092500
     41 NBQ         -3.5840     1.4370     0.5670 nu         1 T5E      -0.955700
     42 NBR          3.5870    -1.4890    -0.6360 nu         1 T5E      -0.955700
     43 CBS         -2.2470     1.0730     0.4180 ca         1 T5E       0.403500
     44 CBT          2.2500    -1.1250    -0.4860 ca         1 T5E       0.403500
     45 CBU         -1.1210    -2.7740    -1.1530 c          1 T5E       0.583600
     46 CBV          1.1250     2.7220     1.0840 c          1 T5E       0.583600
     47 CBW         -2.9180    -1.2190    -0.4950 c          1 T5E       0.608600
     48 CBX          2.9210     1.1680     0.4270 c          1 T5E       0.608600
     49 CBY         -0.1080    -1.7460    -0.7350 ca         1 T5E      -0.095100
     50 CBZ          0.1110     1.6940     0.6670 ca         1 T5E      -0.095100
     51 CCA         -1.8770    -0.1950    -0.0910 ca         1 T5E      -0.255600
     52 CCB          1.8800     0.1430     0.0230 ca         1 T5E      -0.255600
     53 CCC         -0.4970    -0.4970    -0.2220 ca         1 T5E       0.004500
     54 CCD          0.5010     0.4450     0.1540 ca         1 T5E       0.004500
     55 NCE        -10.5680     7.3780    -0.6150 n3         1 T5E      -0.718100
     56 NCF         10.5720    -7.4290     0.5500 n3         1 T5E      -0.718100
     57 NCG         -8.7230    -9.2450     0.1630 n3         1 T5E      -0.715600
     58 NCH          8.7080     9.1980    -0.2280 n3         1 T5E      -0.715600
     59 NCI         -8.5840     5.3440     0.3390 n3         1 T5E      -0.722600
     60 NCJ          8.5880    -5.3950    -0.4060 n3         1 T5E      -0.722600
     61 NCK         -6.2740    -7.5080    -0.0040 n3         1 T5E      -0.717600
     62 NCL          6.2740     7.4590    -0.0650 n3         1 T5E      -0.717600
     63 NCM         -2.4710    -2.4490    -0.9960 n          1 T5E      -0.363400
     64 NCN          2.4750     2.3970     0.9270 n          1 T5E      -0.363400
     65 HDA          9.1580    10.8880     0.9940 h1         1 T5E       0.029367
     66 HDAA        10.5750     9.9450     0.4730 h1         1 T5E       0.029367
     67 HDAB         9.7400    11.0030    -0.6850 h1         1 T5E       0.029367
     68 HAA        -10.8820     9.3310     0.1860 h1         1 T5E       0.030533
     69 HAAA       -11.1350     9.1950    -1.5710 h1         1 T5E       0.030533
     70 HAAB       -12.3460     8.5400    -0.4480 h1         1 T5E       0.030533
     71 HAB         12.3500    -8.5900     0.3830 h1         1 T5E       0.030533
     72 HABA        11.1400    -9.2440     1.5080 h1         1 T5E       0.030533
     73 HABB        10.8860    -9.3820    -0.2490 h1         1 T5E       0.030533
     74 HAC         -9.1890    -7.8720     1.7450 h1         1 T5E       0.029367
     75 HACA       -10.5940    -8.4800     0.8410 h1         1 T5E       0.029367
     76 HACB        -9.7620    -9.5350     2.0010 h1         1 T5E       0.029367
     77 HAI          1.5640    -3.0020    -1.2670 ha         1 T5E       0.144000
     78 HAJ         -1.5610     2.9500     1.1990 ha         1 T5E       0.144000
     79 HAK         -5.9880     2.2890     1.4280 hc         1 T5E       0.051950
     80 HAKA        -6.0550     2.0350    -0.3190 hc         1 T5E       0.051950
     81 HAL          6.0590    -2.0860     0.2500 hc         1 T5E       0.051950
     82 HALA         5.9910    -2.3410    -1.4970 hc         1 T5E       0.051950
     83 HAM         -5.9980     4.7740     1.0670 hc         1 T5E       0.049950
     84 HAMA        -6.0490     4.5150    -0.6780 hc         1 T5E       0.049950
     85 HAN          6.0530    -4.5660     0.6120 hc         1 T5E       0.049950
     86 HANA         6.0010    -4.8260    -1.1340 hc         1 T5E       0.049950
     87 HAO         -5.8410    -4.9110    -1.1080 hc         1 T5E       0.048450
     88 HAOA        -4.5590    -6.0350    -1.5680 hc         1 T5E       0.048450
     89 HAP          4.5610     5.9850     1.4990 hc         1 T5E       0.048450
     90 HAPA         5.8440     4.8610     1.0400 hc         1 T5E       0.048450
     91 HAQ         -4.3030    -3.8210     0.5440 hc         1 T5E       0.049950
     92 HAQA        -3.0140    -4.9320     0.0770 hc         1 T5E       0.049950
     93 HAR          3.0170     4.8800    -0.1460 hc         1 T5E       0.049950
     94 HARA         4.3060     3.7690    -0.6120 hc         1 T5E       0.049950
     95 HAS         -3.8510     3.1920    -0.5790 h1         1 T5E       0.047200
     96 HASA        -3.7850     3.4560     1.1800 h1         1 T5E       0.047200
     97 HAT          3.7880    -3.5080    -1.2470 h1         1 T5E       0.047200
     98 HATA         3.8550    -3.2430     0.5110 h1         1 T5E       0.047200
     99 HAU         -8.2640     3.4090    -0.4810 h1         1 T5E       0.031200
    100 HAUA        -8.1690     3.4980     1.2790 h1         1 T5E       0.031200
    101 HAV          8.1720    -3.5510    -1.3480 h1         1 T5E       0.031200
    102 HAVA         8.2680    -3.4590     0.4120 h1         1 T5E       0.031200
    103 HAW         -4.4550    -6.8300     0.8280 h1         1 T5E       0.029450
    104 HAWA        -5.8470    -5.8130     1.2060 h1         1 T5E       0.029450
    105 HAX          5.8490     5.7630    -1.2750 h1         1 T5E       0.029450
    106 HAXA         4.4560     6.7790    -0.8970 h1         1 T5E       0.029450
    107 HAY         -8.6280     8.1400    -0.1360 h1         1 T5E       0.037825
    108 HAYA        -8.9510     8.0040    -1.8690 h1         1 T5E       0.037825
    109 HAZ        -11.8470     6.4360     0.8190 h1         1 T5E       0.037825
    110 HAZA       -10.3970     7.1790     1.5080 h1         1 T5E       0.037825
    111 HBA         10.4010    -7.2320    -1.5730 h1         1 T5E       0.037825
    112 HBAA        11.8500    -6.4880    -0.8860 h1         1 T5E       0.037825
    113 HBB          8.9560    -8.0520     1.8050 h1         1 T5E       0.037825
    114 HBBA         8.6320    -8.1910     0.0730 h1         1 T5E       0.037825
    115 HBC         -9.4950    -7.8570    -1.2810 h1         1 T5E       0.047325
    116 HBCA        -8.0660    -8.7470    -1.8050 h1         1 T5E       0.047325
    117 HBD         -6.8730   -10.2640    -0.1410 h1         1 T5E       0.047325
    118 HBDA        -7.5020   -10.3950     1.5010 h1         1 T5E       0.047325
    119 HBE          8.0780     8.6800     1.7500 h1         1 T5E       0.047325
    120 HBEA         9.5000     7.7950     1.1830 h1         1 T5E       0.047325
    121 HBF          7.5010    10.3300    -1.5860 h1         1 T5E       0.047325
    122 HBFA         6.8530    10.2280     0.0560 h1         1 T5E       0.047325
    123 HBG         -8.7450     5.5510    -1.7870 h1         1 T5E       0.037200
    124 HBGA        -7.3080     6.3130    -1.0950 h1         1 T5E       0.037200
    125 HBH        -10.2100     4.7240     1.5880 h1         1 T5E       0.037200
    126 HBHA       -10.5280     4.5930    -0.1460 h1         1 T5E       0.037200
    127 HBI         10.5320    -4.6430     0.0770 h1         1 T5E       0.037200
    128 HBIA        10.2130    -4.7780    -1.6560 h1         1 T5E       0.037200
    129 HBJ          7.3130    -6.3630     1.0300 h1         1 T5E       0.037200
    130 HBJA         8.7500    -5.6000     1.7210 h1         1 T5E       0.037200
    131 HBK         -7.4790    -6.4080    -1.4020 h1         1 T5E       0.035575
    132 HBKA        -8.1240    -6.4520     0.2410 h1         1 T5E       0.035575
    133 HBL         -6.8900    -8.0350     1.9780 h1         1 T5E       0.035575
    134 HBLA        -5.4870    -8.9290     1.3880 h1         1 T5E       0.035575
    135 HBM          8.1310     6.4260    -0.3380 h1         1 T5E       0.035575
    136 HBMA         7.4940     6.3430     1.3090 h1         1 T5E       0.035575
    137 HBN          5.4920     8.8640    -1.4770 h1         1 T5E       0.035575
    138 HBNA         6.9160     7.9800    -2.0380 h1         1 T5E       0.035575
    139 HBO         -3.1010    -4.0380    -2.2720 h1         1 T5E       0.069450
    140 HBOA        -4.3810    -2.9360    -1.8130 h1         1 T5E       0.069450
    141 HBP          4.3850     2.8850     1.7440 h1         1 T5E       0.069450
    142 HBPA         3.1050     3.9860     2.2030 h1         1 T5E       0.069450
    143 HNBQ        -4.2100     0.6620     0.3150 hn         1 T5E       0.534500
    144 HNBR         4.2140    -0.7130    -0.3840 hn         1 T5E       0.534500
    145 OAE         -0.7710    -3.8580    -1.6050 o          1 T5E      -0.523500
    146 CAA        -11.2680     8.6800    -0.6100 c3         1 T5E       0.153600
@<TRIPOS>BOND
     1     1    58 1   
     2     1    65 1   
     3     1    66 1   
     4     1    67 1   
     5     2    56 1   
     6     2    71 1   
     7     2    72 1   
     8     2    73 1   
     9     3    57 1   
    10     3    74 1   
    11     3    75 1   
    12     3    76 1   
    13     4    46 2   
    14     5    47 2   
    15     6    48 2   
    16     7    44 ar  
    17     7    49 ar  
    18     7    77 1   
    19     8    43 ar  
    20     8    50 ar  
    21     8    78 1   
    22     9    11 1   
    23     9    17 1   
    24     9    79 1   
    25     9    80 1   
    26    10    12 1   
    27    10    18 1   
    28    10    81 1   
    29    10    82 1   
    30    11    19 1   
    31    11    83 1   
    32    11    84 1   
    33    12    20 1   
    34    12    85 1   
    35    12    86 1   
    36    13    15 1   
    37    13    21 1   
    38    13    87 1   
    39    13    88 1   
    40    14    16 1   
    41    14    22 1   
    42    14    89 1   
    43    14    90 1   
    44    15    39 1   
    45    15    91 1   
    46    15    92 1   
    47    16    40 1   
    48    16    93 1   
    49    16    94 1   
    50    17    41 1   
    51    17    95 1   
    52    17    96 1   
    53    18    42 1   
    54    18    97 1   
    55    18    98 1   
    56    19    59 1   
    57    19    99 1   
    58    19   100 1   
    59    20    60 1   
    60    20   101 1   
    61    20   102 1   
    62    21    61 1   
    63    21   103 1   
    64    21   104 1   
    65    22    62 1   
    66    22   105 1   
    67    22   106 1   
    68    23    31 1   
    69    23    55 1   
    70    23   107 1   
    71    23   108 1   
    72    24    32 1   
    73    24    55 1   
    74    24   109 1   
    75    24   110 1   
    76    25    33 1   
    77    25    56 1   
    78    25   111 1   
    79    25   112 1   
    80    26    34 1   
    81    26    56 1   
    82    26   113 1   
    83    26   114 1   
    84    27    35 1   
    85    27    57 1   
    86    27   115 1   
    87    27   116 1   
    88    28    36 1   
    89    28    57 1   
    90    28   117 1   
    91    28   118 1   
    92    29    37 1   
    93    29    58 1   
    94    29   119 1   
    95    29   120 1   
    96    30    38 1   
    97    30    58 1   
    98    30   121 1   
    99    30   122 1   
   100    31    59 1   
   101    31   123 1   
   102    31   124 1   
   103    32    59 1   
   104    32   125 1   
   105    32   126 1   
   106    33    60 1   
   107    33   127 1   
   108    33   128 1   
   109    34    60 1   
   110    34   129 1   
   111    34   130 1   
   112    35    61 1   
   113    35   131 1   
   114    35   132 1   
   115    36    61 1   
   116    36   133 1   
   117    36   134 1   
   118    37    62 1   
   119    37   135 1   
   120    37   136 1   
   121    38    62 1   
   122    38   137 1   
   123    38   138 1   
   124    39    63 1   
   125    39   139 1   
   126    39   140 1   
   127    40    64 1   
   128    40   141 1   
   129    40   142 1   
   130    41    43 1   
   131    41   143 1   
   132    42    44 1   
   133    42   144 1   
   134    43    51 ar  
   135    44    52 ar  
   136    45    49 1   
   137    45    63 1   
   138    45   145 2   
   139    46    50 1   
   140    46    64 1   
   141    47    51 1   
   142    47    63 1   
   143    48    52 1   
   144    48    64 1   
   145    49    53 ar  
   146    50    54 ar  
   147    51    53 ar  
   148    52    54 ar  
   149    53    54 ar  
   150    55   146 1   
   151    68   146 1   
   152    69   146 1   
   153    70   146 1   
@<TRIPOS>SUBSTRUCTURE
     1 T5E         1 TEMP              0 ****  ****    0 ROOT
