@<TRIPOS>MOLECULE
T5F
   78    81     1     0     0
SMALL
No Charge or Current Charge


@<TRIPOS>ATOM
      1 C1          -1.7910    -1.8470     1.5060 c6         1 T5F      -0.087400
      2 C2           5.1340    -3.4290    -0.8980 c3         1 T5F       0.143800
      3 C3           4.6250    -2.8780     0.4510 c3         1 T5F      -0.074400
      4 C7           1.6170     0.5270     2.8410 c          1 T5F       0.703000
      5 C8          -3.0210    -1.0380    -0.5460 c6         1 T5F      -0.087400
      6 C9          -2.8300    -3.3610    -1.5590 c6         1 T5F      -0.069400
      7 C10         -3.7130    -2.4260    -0.6800 c6         1 T5F      -0.054033
      8 C11         -1.6140    -4.1760     0.5160 c6         1 T5F      -0.069400
      9 C12         -2.4870    -3.2340     1.3930 c6         1 T5F      -0.054033
     10 C13         -3.8830    -3.0550     0.7320 c6         1 T5F      -0.069400
     11 C14          0.1450     2.2940    -0.1120 c3         1 T5F       0.161500
     12 C15         -0.5800     1.0210    -0.6740 c          1 T5F       0.585100
     13 C19         -0.7320    -2.1680    -0.7630 c6         1 T5F      -0.087400
     14 C21         -0.5110     3.6130    -0.6030 c3         1 T5F      -0.076400
     15 C22         -2.0560     3.7350    -0.3910 c6         1 T5F      -0.058700
     16 C24         -4.0050     3.7480     1.2830 c6         1 T5F      -0.071900
     17 C27         -1.4340    -3.5510    -0.8960 c6         1 T5F      -0.054033
     18 C18         -1.6060    -1.1980     0.0960 c6         1 T5F       0.141400
     19 N17         -0.9440     0.0990     0.2910 ns         1 T5F      -0.486900
     20 O16         -0.7960     0.8470    -1.8690 o          1 T5F      -0.640100
     21 C23         -2.4720     3.6070     1.1040 c6         1 T5F      -0.074400
     22 C25         -4.5220     5.0770     0.6830 c6         1 T5F      -0.073400
     23 C28         -4.1180     5.2090    -0.8050 c6         1 T5F      -0.071900
     24 C29         -2.5860     5.0720    -0.9830 c6         1 T5F      -0.074400
     25 N13          1.6150     2.3050    -0.4080 n7         1 T5F      -0.933300
     26 S1           2.6570     2.8960     0.6970 s6         1 T5F       1.271200
     27 O12          3.6630     3.6780    -0.0120 o          1 T5F      -0.577500
     28 O1           1.9530     3.3610     1.8850 o          1 T5F      -0.577500
     29 N10          3.2580     1.3870     0.9920 n7         1 T5F      -0.869300
     30 C6           2.4090     0.2440     1.5040 c3         1 T5F       0.064500
     31 C5           3.2890    -1.0220     1.6460 c3         1 T5F      -0.050400
     32 C4           3.8040    -1.5790     0.2960 c3         1 T5F      -0.079400
     33 N1           5.9140    -4.6670    -0.7210 n8         1 T5F      -0.998200
     34 H1          -2.3840    -1.1860     2.1530 hc         1 T5F       0.061867
     35 H2          -0.8160    -1.9650     2.0000 hc         1 T5F       0.061867
     36 H3           4.2790    -3.6420    -1.5560 h1         1 T5F       0.028200
     37 H4           5.7700    -2.6790    -1.3880 h1         1 T5F       0.028200
     38 H5           4.0050    -3.6390     0.9420 hc         1 T5F       0.038200
     39 H6           5.4820    -2.6850     1.1090 hc         1 T5F       0.038200
     40 H7          -2.9470    -0.5750    -1.5380 hc         1 T5F       0.061867
     41 H8          -3.6410    -0.3640     0.0620 hc         1 T5F       0.061867
     42 H9          -3.3230    -4.3350    -1.6870 hc         1 T5F       0.033700
     43 H10         -2.7170    -2.9370    -2.5670 hc         1 T5F       0.033700
     44 H11         -4.6990    -2.3030    -1.1480 hc         1 T5F       0.040367
     45 H12         -0.6350    -4.3350     0.9890 hc         1 T5F       0.033700
     46 H13         -2.0850    -5.1650     0.4370 hc         1 T5F       0.033700
     47 H14         -2.6070    -3.6700     2.3940 hc         1 T5F       0.040367
     48 H15         -4.5210    -2.4160     1.3580 hc         1 T5F       0.033700
     49 H16         -4.3940    -4.0250     0.6560 hc         1 T5F       0.033700
     50 H17         -0.0160     2.2480     0.9720 h1         1 T5F       0.076700
     51 H18          0.2600    -2.2910    -0.3070 hc         1 T5F       0.061867
     52 H19         -0.5610    -1.7510    -1.7640 hc         1 T5F       0.061867
     53 H20         -0.0120     4.4540    -0.1070 hc         1 T5F       0.060700
     54 H21         -0.2880     3.7210    -1.6720 hc         1 T5F       0.060700
     55 H22         -2.5220     2.9140    -0.9530 hc         1 T5F       0.051700
     56 H23         -4.5120     2.9010     0.7990 hc         1 T5F       0.033200
     57 H24         -4.2610     3.6960     2.3490 hc         1 T5F       0.033200
     58 H25         -0.8190    -4.2170    -1.5170 hc         1 T5F       0.040367
     59 H26         -0.6570     0.3240     1.2450 hn         1 T5F       0.362500
     60 H27         -2.1630     2.6350     1.5100 hc         1 T5F       0.043200
     61 H28         -1.9600     4.3730     1.7020 hc         1 T5F       0.043200
     62 H29         -5.6150     5.1290     0.7790 hc         1 T5F       0.030700
     63 H30         -4.1170     5.9240     1.2530 hc         1 T5F       0.030700
     64 H31         -4.6300     4.4370    -1.3980 hc         1 T5F       0.033200
     65 H32         -4.4540     6.1780    -1.1970 hc         1 T5F       0.033200
     66 H33         -2.0840     5.9210    -0.4970 hc         1 T5F       0.043200
     67 H34         -2.3370     5.1350    -2.0510 hc         1 T5F       0.043200
     68 H35          1.9950     1.3650    -0.3040 hn         1 T5F       0.504000
     69 H36          3.9340     1.6350     1.7150 hn         1 T5F       0.504000
     70 H37          1.6500    -0.0150     0.7580 h1         1 T5F       0.036700
     71 H39          4.1380    -0.8120     2.3080 hc         1 T5F       0.048200
     72 H40          2.6940    -1.8030     2.1360 hc         1 T5F       0.048200
     73 H41          4.4250    -0.8210    -0.1990 hc         1 T5F       0.044200
     74 H42          2.9490    -1.7720    -0.3640 hc         1 T5F       0.044200
     75 H43          5.3010    -5.3950    -0.3340 hn         1 T5F       0.381000
     76 H44          6.1740    -5.0340    -1.6450 hn         1 T5F       0.381000
     77 O8           0.3940     0.5220     2.7870 o          1 T5F      -0.722500
     78 O9           2.2510     0.7150     3.8720 o          1 T5F      -0.722500
@<TRIPOS>BOND
     1     1     9 1   
     2     1    18 1   
     3     1    34 1   
     4     1    35 1   
     5     2     3 1   
     6     2    33 1   
     7     2    36 1   
     8     2    37 1   
     9     3    32 1   
    10     3    38 1   
    11     3    39 1   
    12     4    30 1   
    13     4    77 1   
    14     4    78 1   
    15     5     7 1   
    16     5    18 1   
    17     5    40 1   
    18     5    41 1   
    19     6     7 1   
    20     6    17 1   
    21     6    42 1   
    22     6    43 1   
    23     7    10 1   
    24     7    44 1   
    25     8     9 1   
    26     8    17 1   
    27     8    45 1   
    28     8    46 1   
    29     9    10 1   
    30     9    47 1   
    31    10    48 1   
    32    10    49 1   
    33    11    12 1   
    34    11    14 1   
    35    11    25 1   
    36    11    50 1   
    37    12    19 1   
    38    12    20 2   
    39    13    17 1   
    40    13    18 1   
    41    13    51 1   
    42    13    52 1   
    43    14    15 1   
    44    14    53 1   
    45    14    54 1   
    46    15    21 1   
    47    15    24 1   
    48    15    55 1   
    49    16    21 1   
    50    16    22 1   
    51    16    56 1   
    52    16    57 1   
    53    17    58 1   
    54    18    19 1   
    55    19    59 1   
    56    21    60 1   
    57    21    61 1   
    58    22    23 1   
    59    22    62 1   
    60    22    63 1   
    61    23    24 1   
    62    23    64 1   
    63    23    65 1   
    64    24    66 1   
    65    24    67 1   
    66    25    26 1   
    67    25    68 1   
    68    26    27 2   
    69    26    28 2   
    70    26    29 1   
    71    29    30 1   
    72    29    69 1   
    73    30    31 1   
    74    30    70 1   
    75    31    32 1   
    76    31    71 1   
    77    31    72 1   
    78    32    73 1   
    79    32    74 1   
    80    33    75 1   
    81    33    76 1   
@<TRIPOS>SUBSTRUCTURE
     1 T5F         1 TEMP              0 ****  ****    0 ROOT
