@<TRIPOS>MOLECULE
T5F
   78    81     1     0     0
SMALL
bcc


@<TRIPOS>ATOM
      1 C1          -2.7220    -1.6350     1.5640 c6         1 T5F      -0.087400
      2 C2           7.5730    -1.5990     0.1710 c3         1 T5F       0.143800
      3 C3           6.3170    -1.8880     0.9780 c3         1 T5F      -0.074400
      4 C7           1.3410    -1.1330     1.5730 c          1 T5F       0.913600
      5 C8          -3.7920    -0.7990    -0.5230 c6         1 T5F      -0.087400
      6 C9          -4.2850    -3.1540    -1.1970 c6         1 T5F      -0.069400
      7 C10         -4.8190    -1.9310    -0.4470 c6         1 T5F      -0.054033
      8 C11         -3.2300    -3.9890     0.9060 c6         1 T5F      -0.069400
      9 C12         -3.7550    -2.7600     1.6510 c6         1 T5F      -0.054033
     10 C13         -5.0680    -2.2990     1.0160 c6         1 T5F      -0.069400
     11 C14         -0.0440     1.6220    -0.6320 c3         1 T5F       0.161500
     12 C15         -1.0090     0.4780    -0.9490 c          1 T5F       0.652100
     13 C19         -1.9380    -2.4980    -0.6320 c6         1 T5F      -0.087400
     14 C21         -0.6450     2.9500    -1.0900 c3         1 T5F      -0.076400
     15 C22         -1.9710     3.3270    -0.4330 c6         1 T5F      -0.058700
     16 C24         -3.1930     3.8890     1.7100 c6         1 T5F      -0.071900
     17 C27         -2.9760    -3.6210    -0.5570 c6         1 T5F      -0.054033
     18 C18         -2.4660    -1.2560     0.0990 c6         1 T5F       0.141400
     19 N17         -1.4880    -0.1710     0.1140 ns         1 T5F      -0.553900
     20 O16         -1.3040     0.2500    -2.1160 o          1 T5F      -0.640100
     21 C23         -1.8700     3.4510     1.0880 c6         1 T5F      -0.074400
     22 C25         -3.6930     5.1950     1.1030 c6         1 T5F      -0.073400
     23 C28         -3.8070     5.0800    -0.4130 c6         1 T5F      -0.071900
     24 C29         -2.4840     4.6390    -1.0310 c6         1 T5F      -0.074400
     25 N13          1.2130     1.3580    -1.3300 n7         1 T5F      -0.878100
     26 S1           2.6510     1.6160    -0.5800 s6         1 T5F       1.412800
     27 O12          3.6480     1.1560    -1.5290 o          1 T5F      -0.648300
     28 O1           2.6530     2.9930    -0.1150 o          1 T5F      -0.648300
     29 N10          2.7760     0.7160     0.7850 n7         1 T5F      -0.814100
     30 C6           2.5870    -0.7330     0.7360 c3         1 T5F       0.064500
     31 C5           3.8370    -1.4520     1.2440 c3         1 T5F      -0.050400
     32 C4           5.0900    -1.1760     0.4250 c3         1 T5F      -0.079400
     33 N1           8.7290    -2.2870     0.7290 n8         1 T5F      -0.887800
     34 H1          -3.0740    -0.7550     2.1140 hc         1 T5F       0.061867
     35 H2          -1.7790    -1.9500     2.0230 hc         1 T5F       0.061867
     36 H3           7.3820    -1.8480    -0.8830 h1         1 T5F       0.028200
     37 H4           7.7720    -0.5230     0.1970 h1         1 T5F       0.028200
     38 H5           6.1390    -2.9700     0.9940 hc         1 T5F       0.038200
     39 H6           6.4830    -1.5880     2.0180 hc         1 T5F       0.038200
     40 H7          -3.6440    -0.5000    -1.5620 hc         1 T5F       0.061867
     41 H8          -4.1510     0.0830     0.0180 hc         1 T5F       0.061867
     42 H9          -5.0240    -3.9620    -1.1700 hc         1 T5F       0.033700
     43 H10         -4.1250    -2.9080    -2.2520 hc         1 T5F       0.033700
     44 H11         -5.7530    -1.5970    -0.9070 hc         1 T5F       0.040367
     45 H12         -2.3060    -4.3440     1.3720 hc         1 T5F       0.033700
     46 H13         -3.9540    -4.8070     0.9710 hc         1 T5F       0.033700
     47 H14         -3.9200    -3.0090     2.7030 hc         1 T5F       0.040367
     48 H15         -5.4680    -1.4370     1.5610 hc         1 T5F       0.033700
     49 H16         -5.8200    -3.0920     1.0870 hc         1 T5F       0.033700
     50 H17          0.1430     1.6580     0.4430 h1         1 T5F       0.076700
     51 H18         -1.0000    -2.8060    -0.1620 hc         1 T5F       0.061867
     52 H19         -1.7210    -2.2570    -1.6750 hc         1 T5F       0.061867
     53 H20          0.0920     3.7350    -0.8940 hc         1 T5F       0.060700
     54 H21         -0.7750     2.9090    -2.1750 hc         1 T5F       0.060700
     55 H22         -2.7160     2.5500    -0.6570 hc         1 T5F       0.051700
     56 H23         -3.9410     3.1060     1.5460 hc         1 T5F       0.033200
     57 H24         -3.0820     3.9900     2.7920 hc         1 T5F       0.033200
     58 H25         -2.5960    -4.4950    -1.0960 hc         1 T5F       0.040367
     59 H26         -1.0070    -0.0220     0.9940 hn         1 T5F       0.362500
     60 H27         -1.5630     2.5020     1.5370 hc         1 T5F       0.043200
     61 H28         -1.0870     4.1780     1.3350 hc         1 T5F       0.043200
     62 H29         -4.6570     5.4710     1.5380 hc         1 T5F       0.030700
     63 H30         -2.9960     6.0020     1.3550 hc         1 T5F       0.030700
     64 H31         -4.5840     4.3480    -0.6620 hc         1 T5F       0.033200
     65 H32         -4.1240     6.0310    -0.8470 hc         1 T5F       0.033200
     66 H33         -1.7300     5.4180    -0.8680 hc         1 T5F       0.043200
     67 H34         -2.5910     4.5320    -2.1140 hc         1 T5F       0.043200
     68 H35          1.2190     0.6120    -2.0130 hn         1 T5F       0.448800
     69 H36          2.2050     1.1050     1.5350 hn         1 T5F       0.448800
     70 H37          2.4040    -1.0520    -0.2980 h1         1 T5F       0.036700
     71 H39          4.0100    -1.1630     2.2860 hc         1 T5F       0.048200
     72 H40          3.6330    -2.5250     1.2480 hc         1 T5F       0.048200
     73 H41          5.2780    -0.1000     0.3950 hc         1 T5F       0.044200
     74 H42          4.9220    -1.4840    -0.6120 hc         1 T5F       0.044200
     75 H43          8.6060    -3.2870     0.6170 hn         1 T5F       0.325800
     76 H44          9.5510    -2.0560     0.1850 hn         1 T5F       0.325800
     77 O8           0.7360    -0.2060     2.1630 o          1 T5F      -0.827800
     78 O9           1.0640    -2.3400     1.5920 o          1 T5F      -0.827800
@<TRIPOS>BOND
     1     1     9 1   
     2     1    18 1   
     3     1    34 1   
     4     1    35 1   
     5     2     3 1   
     6     2    33 1   
     7     2    36 1   
     8     2    37 1   
     9     3    32 1   
    10     3    38 1   
    11     3    39 1   
    12     4    30 1   
    13     4    77 1   
    14     4    78 1   
    15     5     7 1   
    16     5    18 1   
    17     5    40 1   
    18     5    41 1   
    19     6     7 1   
    20     6    17 1   
    21     6    42 1   
    22     6    43 1   
    23     7    10 1   
    24     7    44 1   
    25     8     9 1   
    26     8    17 1   
    27     8    45 1   
    28     8    46 1   
    29     9    10 1   
    30     9    47 1   
    31    10    48 1   
    32    10    49 1   
    33    11    12 1   
    34    11    14 1   
    35    11    25 1   
    36    11    50 1   
    37    12    19 1   
    38    12    20 2   
    39    13    17 1   
    40    13    18 1   
    41    13    51 1   
    42    13    52 1   
    43    14    15 1   
    44    14    53 1   
    45    14    54 1   
    46    15    21 1   
    47    15    24 1   
    48    15    55 1   
    49    16    21 1   
    50    16    22 1   
    51    16    56 1   
    52    16    57 1   
    53    17    58 1   
    54    18    19 1   
    55    19    59 1   
    56    21    60 1   
    57    21    61 1   
    58    22    23 1   
    59    22    62 1   
    60    22    63 1   
    61    23    24 1   
    62    23    64 1   
    63    23    65 1   
    64    24    66 1   
    65    24    67 1   
    66    25    26 1   
    67    25    68 1   
    68    26    27 2   
    69    26    28 2   
    70    26    29 1   
    71    29    30 1   
    72    29    69 1   
    73    30    31 1   
    74    30    70 1   
    75    31    32 1   
    76    31    71 1   
    77    31    72 1   
    78    32    73 1   
    79    32    74 1   
    80    33    75 1   
    81    33    76 1   
@<TRIPOS>SUBSTRUCTURE
     1 T5F         1 TEMP              0 ****  ****    0 ROOT
