@<TRIPOS>MOLECULE
T5G
   17    17     1     0     0
SMALL
No Charge or Current Charge


@<TRIPOS>ATOM
      1 C4           0.5710     1.2220     0.0300 ca         1 T5G      -0.009500
      2 C5          -0.8340     1.1780     0.0010 ca         1 T5G      -0.107500
      3 N            3.4480     0.0230     1.6260 n8         1 T5G      -1.007100
      4 C           -1.4980    -0.0580    -0.0620 ca         1 T5G       0.029100
      5 O            3.6810    -1.1690    -0.4800 o          1 T5G      -0.541000
      6 C1          -0.7620    -1.2540    -0.0940 ca         1 T5G      -0.107500
      7 C2           0.6430    -1.2170    -0.0660 ca         1 T5G      -0.009500
      8 C3           1.3150     0.0230    -0.0060 ca         1 T5G      -0.261500
      9 O1           3.6050     1.3870    -0.3800 o          1 T5G      -0.541000
     10 S            3.1100     0.0750     0.0310 sy         1 T5G       1.128600
     11 Br          -3.4100    -0.1140    -0.1000 br         1 T5G      -0.081100
     12 H4           1.0750     2.1860     0.0810 ha         1 T5G       0.141000
     13 H5          -1.4070     2.1020     0.0280 ha         1 T5G       0.136000
     14 H3           4.1090    -0.7500     1.6470 hn         1 T5G       0.476000
     15 H2           4.0620     0.8290     1.7090 hn         1 T5G       0.476000
     16 H           -1.2780    -2.2100    -0.1410 ha         1 T5G       0.136000
     17 H1           1.2040    -2.1510    -0.0900 ha         1 T5G       0.141000
@<TRIPOS>BOND
     1     1     2 ar  
     2     1     8 ar  
     3     1    12 1   
     4     2     4 ar  
     5     2    13 1   
     6     3    10 1   
     7     3    14 1   
     8     3    15 1   
     9     4     6 ar  
    10     4    11 1   
    11     5    10 2   
    12     6     7 ar  
    13     6    16 1   
    14     7     8 ar  
    15     7    17 1   
    16     8    10 1   
    17     9    10 2   
@<TRIPOS>SUBSTRUCTURE
     1 T5G         1 TEMP              0 ****  ****    0 ROOT
