@<TRIPOS>MOLECULE
T5G
   17    17     1     0     0
SMALL
abcg2


@<TRIPOS>ATOM
      1 C4           0.6210     1.2360    -0.0710 ca         1 T5G      -0.009500
      2 C5          -0.7660     1.2000    -0.0650 ca         1 T5G      -0.107500
      3 N            3.4400    -0.2690     1.5290 n8         1 T5G      -1.007100
      4 C           -1.4100    -0.0270    -0.0210 ca         1 T5G       0.029100
      5 O            3.5990    -1.0480    -0.8210 o          1 T5G      -0.541000
      6 C1          -0.6980    -1.2200     0.0170 ca         1 T5G      -0.107500
      7 C2           0.6850    -1.1790     0.0140 ca         1 T5G      -0.009500
      8 C3           1.3330     0.0490    -0.0290 ca         1 T5G      -0.261500
      9 O1           3.5160     1.4220    -0.4360 o          1 T5G      -0.541000
     10 S            3.1040     0.0810    -0.0470 sy         1 T5G       1.128600
     11 BR          -3.2920    -0.0800    -0.0170 br         1 T5G      -0.081100
     12 H4           1.1260     2.1910    -0.1110 ha         1 T5G       0.141000
     13 H5          -1.3240     2.1260    -0.0970 ha         1 T5G       0.136000
     14 H3           4.3890    -0.6130     1.6410 hn         1 T5G       0.476000
     15 H2           3.2700     0.5110     2.1550 hn         1 T5G       0.476000
     16 H           -1.2050    -2.1740     0.0480 ha         1 T5G       0.136000
     17 H1           1.2440    -2.1050     0.0440 ha         1 T5G       0.141000
@<TRIPOS>BOND
     1     1     2 ar  
     2     1     8 ar  
     3     1    12 1   
     4     2     4 ar  
     5     2    13 1   
     6     3    10 1   
     7     3    14 1   
     8     3    15 1   
     9     4     6 ar  
    10     4    11 1   
    11     5    10 2   
    12     6     7 ar  
    13     6    16 1   
    14     7     8 ar  
    15     7    17 1   
    16     8    10 1   
    17     9    10 2   
@<TRIPOS>SUBSTRUCTURE
     1 T5G         1 TEMP              0 ****  ****    0 ROOT
