@<TRIPOS>MOLECULE
T5H
  110   115     1     0     0
SMALL
No Charge or Current Charge


@<TRIPOS>ATOM
      1 CAM        -17.4230    -2.7040    -1.5020 c6         1 T5H      -0.074400
      2 CAN        -16.3280    -3.3700    -0.6320 c6         1 T5H      -0.072400
      3 CAO        -16.7700    -4.7710    -0.1510 c6         1 T5H      -0.076400
      4 CAP        -18.1160    -4.6970     0.6060 c6         1 T5H      -0.072400
      5 CAQ        -19.2130    -4.0300    -0.2600 c6         1 T5H      -0.074400
      6 CAI        -18.7840    -2.6120    -0.7460 c6         1 T5H      -0.045700
      7 CAH        -19.8900    -1.9360    -1.6310 c3         1 T5H      -0.086400
      8 CAJ        -19.5500    -0.4840    -2.0790 c          1 T5H       0.623100
      9 OAK        -18.9240     0.2620    -1.3350 o          1 T5H      -0.605100
     10 N          -19.9940    -0.0190    -3.3490 n          1 T5H      -0.393800
     11 CAV        -21.2880    -0.5380    -3.9120 c6         1 T5H       0.100000
     12 CAU        -21.5630    -0.2050    -5.3930 c6         1 T5H      -0.092400
     13 CAT        -21.3740     1.2870    -5.6790 c6         1 T5H      -0.077400
     14 CB         -19.9420     1.6770    -5.2810 c6         1 T5H      -0.072400
     15 CA         -19.6100     1.3850    -3.7880 c6         1 T5H       0.046700
     16 C          -20.1750     2.5040    -2.8660 c          1 T5H       0.578100
     17 O          -19.4370     3.2120    -2.1910 o          1 T5H      -0.487000
     18 OAX        -21.5230     2.3750    -2.6280 os         1 T5H      -0.438100
     19 CAZ        -22.1700     3.1980    -1.6390 c3         1 T5H       0.222600
     20 CBA        -21.7210     2.7590    -0.2100 c3         1 T5H      -0.075400
     21 CBC        -22.5240     3.4180     0.9390 c3         1 T5H      -0.023100
     22 CBD        -22.6060     4.9370     0.8190 ca         1 T5H      -0.083300
     23 CBN        -21.4340     5.7160     0.8440 ca         1 T5H      -0.171000
     24 CBJ        -23.8530     5.5680     0.6690 ca         1 T5H      -0.105000
     25 CBK        -23.9360     6.9630     0.5350 ca         1 T5H      -0.171000
     26 CBL        -22.7620     7.7500     0.5540 ca         1 T5H       0.112100
     27 OBV        -22.8060     9.1290     0.4210 os         1 T5H      -0.320100
     28 CBW        -24.0400     9.8490     0.2540 c3         1 T5H       0.145900
     29 CBM        -21.5030     7.1220     0.7100 ca         1 T5H       0.115100
     30 OBX        -20.3650     7.9120     0.7230 os         1 T5H      -0.321100
     31 CBY        -19.0420     7.3610     0.8560 c3         1 T5H       0.144900
     32 CBB        -23.6770     3.0330    -1.8440 ca         1 T5H      -0.080300
     33 CBE        -24.3170     1.8170    -1.5260 ca         1 T5H      -0.124000
     34 CBI        -24.4540     4.1120    -2.3110 ca         1 T5H      -0.113000
     35 CBH        -25.8490     3.9850    -2.4290 ca         1 T5H      -0.088000
     36 CBG        -26.4820     2.7820    -2.0700 ca         1 T5H      -0.175000
     37 CBF        -25.7100     1.6950    -1.6120 ca         1 T5H       0.119100
     38 OBP        -26.2730     0.5110    -1.1940 os         1 T5H      -0.355100
     39 CBQ        -27.6620     0.4140    -0.8240 c3         1 T5H       0.124600
     40 CBS        -27.9080    -0.9140    -0.0480 c3         1 T5H       0.194300
     41 OBU        -27.4550    -2.0430    -0.8250 oh         1 T5H      -0.646000
     42 CBR        -27.2930    -0.9320     1.4020 c3         1 T5H       0.139300
     43 OBT        -27.7370    -2.1130     2.1060 oh         1 T5H      -0.634000
     44 CBO        -25.7370    -0.8190     1.4750 c3         1 T5H       0.136600
     45 OAG        -25.1580    -1.8830     0.6960 os         1 T5H      -0.325100
     46 CAC        -23.8550    -1.8720     0.2120 ca         1 T5H       0.046100
     47 CAB        -23.6110    -2.6400    -0.9470 ca         1 T5H       0.148100
     48 OBZ        -24.6730    -3.3350    -1.5030 os         1 T5H      -0.337100
     49 CCA        -24.5470    -4.1080    -2.7090 c3         1 T5H       0.147400
     50 CAA        -22.3250    -2.6710    -1.5200 ca         1 T5H      -0.211500
     51 CAF        -21.2710    -1.9300    -0.9600 ca         1 T5H      -0.013300
     52 CAE        -21.5020    -1.1900     0.2130 ca         1 T5H      -0.211500
     53 CAD        -22.7820    -1.1550     0.8150 ca         1 T5H       0.148100
     54 OCB        -22.9880    -0.4490     1.9890 os         1 T5H      -0.337100
     55 CCC        -21.9120     0.1110     2.7630 c3         1 T5H       0.147400
     56 HAN        -17.0790    -1.7050    -1.8010 hc         1 T5H       0.041950
     57 HAM        -17.5500    -3.2770    -2.4300 hc         1 T5H       0.041950
     58 HAP        -15.3950    -3.4510    -1.2070 hc         1 T5H       0.040200
     59 HAO        -16.1050    -2.7330     0.2350 hc         1 T5H       0.040200
     60 HAQ        -16.8660    -5.4460    -1.0130 hc         1 T5H       0.037700
     61 HAR        -15.9980    -5.2040     0.5000 hc         1 T5H       0.037700
     62 HAS        -18.4350    -5.7070     0.8980 hc         1 T5H       0.040200
     63 HAT        -17.9850    -4.1300     1.5390 hc         1 T5H       0.040200
     64 HAV        -20.1380    -3.9700     0.3300 hc         1 T5H       0.041950
     65 HAU        -19.4380    -4.6690    -1.1250 hc         1 T5H       0.041950
     66 HAI        -18.6470    -1.9750     0.1390 hc         1 T5H       0.069700
     67 HAH        -19.9860    -2.5310    -2.5440 hc         1 T5H       0.063700
     68 HB7        -22.1130    -0.1440    -3.3010 h1         1 T5H       0.050700
     69 HB8        -21.3310    -1.6300    -3.8370 h1         1 T5H       0.050700
     70 HB6        -22.5840    -0.5130    -5.6580 hc         1 T5H       0.048200
     71 HB5        -20.8870    -0.7920    -6.0290 hc         1 T5H       0.048200
     72 HB3        -21.5360     1.4890    -6.7470 hc         1 T5H       0.052200
     73 HB4        -22.1130     1.8840    -5.1280 hc         1 T5H       0.052200
     74 HB1        -19.2340     1.1240    -5.9140 hc         1 T5H       0.061200
     75 HB2        -19.7700     2.7400    -5.5000 hc         1 T5H       0.061200
     76 HA         -18.5200     1.4770    -3.6800 h1         1 T5H       0.106700
     77 HAZ        -21.9060     4.2540    -1.7880 h1         1 T5H       0.079700
     78 HBA        -21.7960     1.6700    -0.1190 hc         1 T5H       0.055700
     79 HB9        -20.6650     3.0010    -0.0570 hc         1 T5H       0.055700
     80 HBC        -23.5290     2.9800     0.9730 hc         1 T5H       0.049700
     81 HCA        -22.0550     3.1540     1.8940 hc         1 T5H       0.049700
     82 HBN        -20.4780     5.2150     0.9660 ha         1 T5H       0.118000
     83 HBJ        -24.7650     4.9740     0.6450 ha         1 T5H       0.114000
     84 HBK        -24.9170     7.4130     0.4160 ha         1 T5H       0.118000
     85 HBW        -23.8420    10.9250     0.1690 h1         1 T5H       0.039033
     86 HCD        -24.5600     9.5260    -0.6560 h1         1 T5H       0.039033
     87 HCE        -24.7020     9.6930     1.1150 h1         1 T5H       0.039033
     88 HCG        -18.2940     8.1630     0.8360 h1         1 T5H       0.039700
     89 HBY        -18.9380     6.8230     1.8060 h1         1 T5H       0.039700
     90 HCF        -18.8230     6.6700     0.0320 h1         1 T5H       0.039700
     91 HBE        -23.7380     0.9690    -1.1710 ha         1 T5H       0.133000
     92 HBI        -23.9800     5.0580    -2.5640 ha         1 T5H       0.128000
     93 HBH        -26.4410     4.8260    -2.7840 ha         1 T5H       0.114000
     94 HBG        -27.5630     2.7080    -2.1530 ha         1 T5H       0.118000
     95 HBQ        -27.9500     1.2540    -0.1780 h1         1 T5H       0.043700
     96 HCC        -28.2990     0.4390    -1.7180 h1         1 T5H       0.043700
     97 HBS        -28.9970    -0.9870     0.0800 h1         1 T5H       0.074700
     98 HBU        -26.5110    -2.1740    -0.5640 ho         1 T5H       0.480000
     99 HBR        -27.6920    -0.0520     1.9240 h1         1 T5H       0.022700
    100 HBT        -27.3140    -2.1050     2.9930 ho         1 T5H       0.440000
    101 HCB        -25.4150    -0.8830     2.5220 h1         1 T5H       0.043700
    102 HBO        -25.4260     0.1610     1.0930 h1         1 T5H       0.043700
    103 HCJ        -25.5110    -4.5620    -2.9710 h1         1 T5H       0.043867
    104 HCH        -24.2320    -3.4740    -3.5480 h1         1 T5H       0.043867
    105 HCI        -23.8160    -4.9160    -2.5810 h1         1 T5H       0.043867
    106 HAA        -22.1350    -3.2630    -2.4090 ha         1 T5H       0.127500
    107 HAE        -20.6720    -0.6400     0.6430 ha         1 T5H       0.127500
    108 HCM        -22.3060     0.5940     3.6650 h1         1 T5H       0.043867
    109 HCK        -21.2090    -0.6720     3.0750 h1         1 T5H       0.043867
    110 HCL        -21.3630     0.8660     2.1880 h1         1 T5H       0.043867
@<TRIPOS>BOND
     1     1     2 1   
     2     1     6 1   
     3     1    56 1   
     4     1    57 1   
     5     2     3 1   
     6     2    58 1   
     7     2    59 1   
     8     3     4 1   
     9     3    60 1   
    10     3    61 1   
    11     4     5 1   
    12     4    62 1   
    13     4    63 1   
    14     5     6 1   
    15     5    64 1   
    16     5    65 1   
    17     6     7 1   
    18     6    66 1   
    19     7     8 1   
    20     7    51 1   
    21     7    67 1   
    22     8     9 2   
    23     8    10 1   
    24    10    11 1   
    25    10    15 1   
    26    11    12 1   
    27    11    68 1   
    28    11    69 1   
    29    12    13 1   
    30    12    70 1   
    31    12    71 1   
    32    13    14 1   
    33    13    72 1   
    34    13    73 1   
    35    14    15 1   
    36    14    74 1   
    37    14    75 1   
    38    15    16 1   
    39    15    76 1   
    40    16    17 2   
    41    16    18 1   
    42    18    19 1   
    43    19    20 1   
    44    19    32 1   
    45    19    77 1   
    46    20    21 1   
    47    20    78 1   
    48    20    79 1   
    49    21    22 1   
    50    21    80 1   
    51    21    81 1   
    52    22    23 ar  
    53    22    24 ar  
    54    23    29 ar  
    55    23    82 1   
    56    24    25 ar  
    57    24    83 1   
    58    25    26 ar  
    59    25    84 1   
    60    26    27 1   
    61    26    29 ar  
    62    27    28 1   
    63    28    85 1   
    64    28    86 1   
    65    28    87 1   
    66    29    30 1   
    67    30    31 1   
    68    31    88 1   
    69    31    89 1   
    70    31    90 1   
    71    32    33 ar  
    72    32    34 ar  
    73    33    37 ar  
    74    33    91 1   
    75    34    35 ar  
    76    34    92 1   
    77    35    36 ar  
    78    35    93 1   
    79    36    37 ar  
    80    36    94 1   
    81    37    38 1   
    82    38    39 1   
    83    39    40 1   
    84    39    95 1   
    85    39    96 1   
    86    40    41 1   
    87    40    42 1   
    88    40    97 1   
    89    41    98 1   
    90    42    43 1   
    91    42    44 1   
    92    42    99 1   
    93    43   100 1   
    94    44    45 1   
    95    44   101 1   
    96    44   102 1   
    97    45    46 1   
    98    46    47 ar  
    99    46    53 ar  
   100    47    48 1   
   101    47    50 ar  
   102    48    49 1   
   103    49   103 1   
   104    49   104 1   
   105    49   105 1   
   106    50    51 ar  
   107    50   106 1   
   108    51    52 ar  
   109    52    53 ar  
   110    52   107 1   
   111    53    54 1   
   112    54    55 1   
   113    55   108 1   
   114    55   109 1   
   115    55   110 1   
@<TRIPOS>SUBSTRUCTURE
     1 T5H         1 TEMP              0 ****  ****    0 ROOT
