@<TRIPOS>MOLECULE
T5H
  110   115     1     0     0
SMALL
bcc


@<TRIPOS>ATOM
      1 CAM        -17.6810    -2.6770    -1.7910 c6         1 T5H      -0.074400
      2 CAN        -16.5810    -3.4480    -1.0680 c6         1 T5H      -0.072400
      3 CAO        -17.0690    -4.8170    -0.6110 c6         1 T5H      -0.076400
      4 CAP        -18.3220    -4.6810     0.2450 c6         1 T5H      -0.072400
      5 CAQ        -19.4170    -3.9070    -0.4810 c6         1 T5H      -0.074400
      6 CAI        -18.9350    -2.5240    -0.9250 c6         1 T5H      -0.045700
      7 CAH        -20.0430    -1.7800    -1.6900 c3         1 T5H      -0.086400
      8 CAJ        -19.6230    -0.3540    -2.0440 c          1 T5H       0.690100
      9 OAK        -18.9050     0.2820    -1.2860 o          1 T5H      -0.605100
     10 N          -20.0690     0.1790    -3.2120 n          1 T5H      -0.460800
     11 CAV        -21.1130    -0.3840    -4.0590 c6         1 T5H       0.100000
     12 CAU        -20.7550    -0.2820    -5.5340 c6         1 T5H      -0.092400
     13 CAT        -20.4370     1.1520    -5.9240 c6         1 T5H      -0.077400
     14 CB         -19.3570     1.7060    -5.0060 c6         1 T5H      -0.072400
     15 CA         -19.7150     1.5510    -3.5320 c6         1 T5H       0.046700
     16 C          -20.7970     2.5310    -3.0870 c          1 T5H       0.627100
     17 O          -21.0380     3.5710    -3.6440 o          1 T5H      -0.536000
     18 OAX        -21.3790     2.1230    -1.9710 os         1 T5H      -0.414900
     19 CAZ        -22.2980     2.9940    -1.2860 c3         1 T5H       0.199400
     20 CBA        -22.0490     2.7550     0.1980 c3         1 T5H      -0.075400
     21 CBC        -22.9650     3.5640     1.1130 c3         1 T5H      -0.023100
     22 CBD        -22.9040     5.0510     0.8880 ca         1 T5H      -0.083300
     23 CBN        -21.6860     5.7320     1.0090 ca         1 T5H      -0.189000
     24 CBJ        -24.0330     5.7750     0.5570 ca         1 T5H      -0.123000
     25 CBK        -23.9680     7.1540     0.3560 ca         1 T5H      -0.189000
     26 CBL        -22.7660     7.8280     0.4770 ca         1 T5H       0.112100
     27 OBV        -22.5990     9.1540     0.3080 os         1 T5H      -0.296900
     28 CBW        -23.7370     9.9310     0.0060 c3         1 T5H       0.122700
     29 CBM        -21.6020     7.0980     0.8040 ca         1 T5H       0.115100
     30 OBX        -20.4700     7.8220     0.8960 os         1 T5H      -0.297900
     31 CBY        -19.2670     7.1420     1.1870 c3         1 T5H       0.121700
     32 CBB        -23.7100     2.6970    -1.7150 ca         1 T5H      -0.080300
     33 CBE        -24.2920     1.4740    -1.4010 ca         1 T5H      -0.142000
     34 CBI        -24.4650     3.6720    -2.3570 ca         1 T5H      -0.131000
     35 CBH        -25.7960     3.4240    -2.6620 ca         1 T5H      -0.106000
     36 CBG        -26.3920     2.2180    -2.3220 ca         1 T5H      -0.193000
     37 CBF        -25.6350     1.2400    -1.6770 ca         1 T5H       0.119100
     38 OBP        -26.1440     0.0540    -1.2750 os         1 T5H      -0.331900
     39 CBQ        -27.5040     0.0190    -0.8660 c3         1 T5H       0.101400
     40 CBS        -27.7290    -1.0850     0.1580 c3         1 T5H       0.171100
     41 OBU        -27.4770    -2.3640    -0.3540 oh         1 T5H      -0.583800
     42 CBR        -27.0830    -0.8010     1.5250 c3         1 T5H       0.116100
     43 OBT        -27.5540    -1.8040     2.3980 oh         1 T5H      -0.571800
     44 CBO        -25.5690    -0.6650     1.6010 c3         1 T5H       0.113400
     45 OAG        -24.9240    -1.8710     1.1940 os         1 T5H      -0.301900
     46 CAC        -23.7530    -1.7770     0.5160 ca         1 T5H       0.046100
     47 CAB        -23.6720    -2.3640    -0.7480 ca         1 T5H       0.148100
     48 OBZ        -24.7980    -2.9520    -1.1980 os         1 T5H      -0.313900
     49 CCA        -24.8190    -3.4780    -2.5130 c3         1 T5H       0.124200
     50 CAA        -22.4750    -2.3520    -1.4580 ca         1 T5H      -0.229500
     51 CAF        -21.3530    -1.7330    -0.9270 ca         1 T5H      -0.013300
     52 CAE        -21.4240    -1.1310     0.3250 ca         1 T5H      -0.229500
     53 CAD        -22.6080    -1.1780     1.0580 ca         1 T5H       0.148100
     54 OCB        -22.7450    -0.6790     2.2990 os         1 T5H      -0.313900
     55 CCC        -21.6240    -0.0880     2.9260 c3         1 T5H       0.124200
     56 HAN        -17.2990    -1.7010    -2.0980 hc         1 T5H       0.041950
     57 HAM        -17.9520    -3.2110    -2.7090 hc         1 T5H       0.041950
     58 HAP        -15.7100    -3.5510    -1.7210 hc         1 T5H       0.040200
     59 HAO        -16.2500    -2.8720    -0.1970 hc         1 T5H       0.040200
     60 HAQ        -17.2970    -5.4320    -1.4890 hc         1 T5H       0.037700
     61 HAR        -16.2840    -5.3380    -0.0590 hc         1 T5H       0.037700
     62 HAS        -18.6950    -5.6670     0.5340 hc         1 T5H       0.040200
     63 HAT        -18.0700    -4.1600     1.1750 hc         1 T5H       0.040200
     64 HAV        -20.2910    -3.8170     0.1670 hc         1 T5H       0.041950
     65 HAU        -19.7410    -4.4750    -1.3620 hc         1 T5H       0.041950
     66 HAI        -18.6670    -1.9540    -0.0280 hc         1 T5H       0.069700
     67 HAH        -20.2090    -2.3580    -2.6020 hc         1 T5H       0.063700
     68 HB7        -22.0590     0.1350    -3.8640 h1         1 T5H       0.050700
     69 HB8        -21.2820    -1.4240    -3.8070 h1         1 T5H       0.050700
     70 HB6        -21.5900    -0.6700    -6.1200 hc         1 T5H       0.048200
     71 HB5        -19.8930    -0.9250    -5.7370 hc         1 T5H       0.048200
     72 HB3        -20.1040     1.2020    -6.9620 hc         1 T5H       0.052200
     73 HB4        -21.3420     1.7630    -5.8570 hc         1 T5H       0.052200
     74 HB1        -18.4220     1.1660    -5.1770 hc         1 T5H       0.061200
     75 HB2        -19.1530     2.7550    -5.2190 hc         1 T5H       0.061200
     76 HA         -18.8360     1.8160    -2.9390 h1         1 T5H       0.106700
     77 HAZ        -22.0620     4.0310    -1.5310 h1         1 T5H       0.079700
     78 HBA        -22.1750     1.6940     0.4240 hc         1 T5H       0.055700
     79 HB9        -21.0030     2.9920     0.4110 hc         1 T5H       0.055700
     80 HBC        -23.9970     3.2240     0.9980 hc         1 T5H       0.049700
     81 HCA        -22.6850     3.3350     2.1450 hc         1 T5H       0.049700
     82 HBN        -20.7990     5.1700     1.2710 ha         1 T5H       0.136000
     83 HBJ        -24.9860     5.2730     0.4490 ha         1 T5H       0.132000
     84 HBK        -24.8750     7.6860     0.1020 ha         1 T5H       0.136000
     85 HBW        -23.3980    10.9610    -0.0730 h1         1 T5H       0.039033
     86 HCD        -24.1940     9.6390    -0.9440 h1         1 T5H       0.039033
     87 HCE        -24.4960     9.8690     0.7910 h1         1 T5H       0.039033
     88 HCG        -18.4810     7.8940     1.1960 h1         1 T5H       0.039700
     89 HBY        -19.2970     6.6540     2.1650 h1         1 T5H       0.039700
     90 HCF        -19.0270     6.3920     0.4280 h1         1 T5H       0.039700
     91 HBE        -23.7220     0.7030    -0.8960 ha         1 T5H       0.151000
     92 HBI        -24.0200     4.6280    -2.6010 ha         1 T5H       0.146000
     93 HBH        -26.3840     4.1810    -3.1630 ha         1 T5H       0.132000
     94 HBG        -27.4350     2.0520    -2.5580 ha         1 T5H       0.136000
     95 HBQ        -27.8000     0.9780    -0.4270 h1         1 T5H       0.043700
     96 HCC        -28.1520    -0.1620    -1.7300 h1         1 T5H       0.043700
     97 HBS        -28.8090    -1.0490     0.3470 h1         1 T5H       0.074700
     98 HBU        -26.5270    -2.4760    -0.4970 ho         1 T5H       0.441000
     99 HBR        -27.4620     0.1880     1.8280 h1         1 T5H       0.022700
    100 HBT        -27.2820    -1.5800     3.2940 ho         1 T5H       0.401000
    101 HCB        -25.3070    -0.4440     2.6410 h1         1 T5H       0.043700
    102 HBO        -25.2360     0.1860     1.0060 h1         1 T5H       0.043700
    103 HCJ        -25.8270    -3.8500    -2.6770 h1         1 T5H       0.043867
    104 HCH        -24.5970    -2.7120    -3.2590 h1         1 T5H       0.043867
    105 HCI        -24.1150    -4.3060    -2.6290 h1         1 T5H       0.043867
    106 HAA        -22.4090    -2.8350    -2.4230 ha         1 T5H       0.145500
    107 HAE        -20.5430    -0.6580     0.7370 ha         1 T5H       0.145500
    108 HCM        -21.9530     0.2180     3.9160 h1         1 T5H       0.043867
    109 HCK        -20.7980    -0.7950     3.0310 h1         1 T5H       0.043867
    110 HCL        -21.2690     0.7930     2.3860 h1         1 T5H       0.043867
@<TRIPOS>BOND
     1     1     2 1   
     2     1     6 1   
     3     1    56 1   
     4     1    57 1   
     5     2     3 1   
     6     2    58 1   
     7     2    59 1   
     8     3     4 1   
     9     3    60 1   
    10     3    61 1   
    11     4     5 1   
    12     4    62 1   
    13     4    63 1   
    14     5     6 1   
    15     5    64 1   
    16     5    65 1   
    17     6     7 1   
    18     6    66 1   
    19     7     8 1   
    20     7    51 1   
    21     7    67 1   
    22     8     9 2   
    23     8    10 1   
    24    10    11 1   
    25    10    15 1   
    26    11    12 1   
    27    11    68 1   
    28    11    69 1   
    29    12    13 1   
    30    12    70 1   
    31    12    71 1   
    32    13    14 1   
    33    13    72 1   
    34    13    73 1   
    35    14    15 1   
    36    14    74 1   
    37    14    75 1   
    38    15    16 1   
    39    15    76 1   
    40    16    17 2   
    41    16    18 1   
    42    18    19 1   
    43    19    20 1   
    44    19    32 1   
    45    19    77 1   
    46    20    21 1   
    47    20    78 1   
    48    20    79 1   
    49    21    22 1   
    50    21    80 1   
    51    21    81 1   
    52    22    23 ar  
    53    22    24 ar  
    54    23    29 ar  
    55    23    82 1   
    56    24    25 ar  
    57    24    83 1   
    58    25    26 ar  
    59    25    84 1   
    60    26    27 1   
    61    26    29 ar  
    62    27    28 1   
    63    28    85 1   
    64    28    86 1   
    65    28    87 1   
    66    29    30 1   
    67    30    31 1   
    68    31    88 1   
    69    31    89 1   
    70    31    90 1   
    71    32    33 ar  
    72    32    34 ar  
    73    33    37 ar  
    74    33    91 1   
    75    34    35 ar  
    76    34    92 1   
    77    35    36 ar  
    78    35    93 1   
    79    36    37 ar  
    80    36    94 1   
    81    37    38 1   
    82    38    39 1   
    83    39    40 1   
    84    39    95 1   
    85    39    96 1   
    86    40    41 1   
    87    40    42 1   
    88    40    97 1   
    89    41    98 1   
    90    42    43 1   
    91    42    44 1   
    92    42    99 1   
    93    43   100 1   
    94    44    45 1   
    95    44   101 1   
    96    44   102 1   
    97    45    46 1   
    98    46    47 ar  
    99    46    53 ar  
   100    47    48 1   
   101    47    50 ar  
   102    48    49 1   
   103    49   103 1   
   104    49   104 1   
   105    49   105 1   
   106    50    51 ar  
   107    50   106 1   
   108    51    52 ar  
   109    52    53 ar  
   110    52   107 1   
   111    53    54 1   
   112    54    55 1   
   113    55   108 1   
   114    55   109 1   
   115    55   110 1   
@<TRIPOS>SUBSTRUCTURE
     1 T5H         1 TEMP              0 ****  ****    0 ROOT
