@<TRIPOS>MOLECULE
T5I
   53    54     1     0     0
SMALL
abcg2


@<TRIPOS>ATOM
      1 C10          1.7890    -2.4070    84.0400 ca         1 T5I      -0.049600
      2 C13          0.9480    -0.7470    85.5740 ca         1 T5I      -0.023000
      3 C15         -0.5610    -2.4120    84.6530 ca         1 T5I       0.223100
      4 C20         -2.1000    -4.1190    85.3090 c3         1 T5I       0.205600
      5 C21         -3.6000    -4.2720    85.4190 c3         1 T5I      -0.087400
      6 C24         -3.7020    -5.2980    82.5110 c3         1 T5I      -0.104767
      7 C1           5.1430    -5.9950    82.6050 c6         1 T5I      -0.073200
      8 C2           5.0710    -6.6060    83.9980 c6         1 T5I      -0.063400
      9 C3           3.6520    -6.5000    84.5460 c6         1 T5I      -0.179400
     10 C4           3.1410    -5.0780    84.5600 c          1 T5I       0.608300
     11 C5           3.5360    -4.2100    83.4390 ce         1 T5I      -0.479400
     12 C6           4.5080    -4.6490    82.5390 c2         1 T5I       0.288900
     13 C9           2.9380    -2.9120    83.2190 c          1 T5I       0.629900
     14 C12          1.9970    -1.3030    84.8570 ca         1 T5I      -0.092000
     15 C14         -0.3220    -1.3000    85.4730 ca         1 T5I      -0.254500
     16 C16          0.5070    -2.9400    83.9250 ca         1 T5I       0.116000
     17 C18         -1.0880     0.7530    87.2790 c3         1 T5I      -0.351100
     18 C23         -4.7900    -2.4910    83.1590 c3         1 T5I      -0.104767
     19 C25         -6.2770    -4.9700    84.1600 c3         1 T5I      -0.104767
     20 O7           4.9170    -3.9010    81.5490 oh         1 T5I      -0.535100
     21 O11          3.3440    -2.1460    82.3230 o          1 T5I      -0.589100
     22 O19         -1.8180    -2.9050    84.5450 os         1 T5I      -0.388100
     23 S26         -1.7300    -0.6040    86.3320 sy         1 T5I       1.090500
     24 CL1          0.2080    -4.2600    82.8320 cl         1 T5I      -0.182000
     25 SI2         -4.5810    -4.2450    83.7970 s6         1 T5I      -0.203000
     26 H1           1.1360     0.1110    86.2000 ha         1 T5I       0.122000
     27 H2          -1.6480    -4.9650    84.7890 h1         1 T5I       0.046200
     28 H3          -1.6270    -4.0090    86.2860 h1         1 T5I       0.046200
     29 H4          -3.9980    -3.5050    86.0890 h1         1 T5I       0.074700
     30 H5          -3.7920    -5.2380    85.8990 h1         1 T5I       0.074700
     31 H6          -3.5620    -6.3200    82.8710 h1         1 T5I       0.055922
     32 H7          -4.2850    -5.3420    81.5880 h1         1 T5I       0.055922
     33 H8          -2.7200    -4.8860    82.2740 h1         1 T5I       0.055922
     34 H9           4.6040    -6.6260    81.8860 hc         1 T5I       0.082700
     35 H10          6.1670    -5.9090    82.2410 hc         1 T5I       0.082700
     36 H11          5.3850    -7.6490    83.9590 hc         1 T5I       0.058200
     37 H12          5.7620    -6.0820    84.6630 hc         1 T5I       0.058200
     38 H13          3.5740    -6.8960    85.5580 hc         1 T5I       0.074700
     39 H14          2.9680    -7.0760    83.9100 hc         1 T5I       0.074700
     40 H17          2.9880    -0.8770    84.9350 ha         1 T5I       0.129000
     41 H18         -1.9620     1.1490    87.7950 h1         1 T5I       0.103700
     42 H19         -0.3570     0.3910    87.9990 h1         1 T5I       0.103700
     43 H20         -0.6680     1.5060    86.6150 h1         1 T5I       0.103700
     44 H21         -5.2480    -1.8540    83.9200 h1         1 T5I       0.055922
     45 H22         -3.8270    -2.0540    82.8900 h1         1 T5I       0.055922
     46 H23         -5.4350    -2.4790    82.2760 h1         1 T5I       0.055922
     47 H24         -6.7900    -4.3950    84.9360 h1         1 T5I       0.055922
     48 H25         -6.9050    -4.9620    83.2660 h1         1 T5I       0.055922
     49 H26         -6.1960    -6.0040    84.5060 h1         1 T5I       0.055922
     50 H27          4.4060    -3.0270    81.6120 ho         1 T5I       0.546000
     51 O8           2.4220    -4.6850    85.4700 o          1 T5I      -0.540100
     52 O27         -2.2450    -1.5890    87.2650 o          1 T5I      -0.519500
     53 O28         -2.6450    -0.0610    85.3450 o          1 T5I      -0.519500
@<TRIPOS>BOND
     1     1    13 1   
     2     1    14 ar  
     3     1    16 ar  
     4     2    14 ar  
     5     2    15 ar  
     6     2    26 1   
     7     3    15 ar  
     8     3    16 ar  
     9     3    22 1   
    10     4     5 1   
    11     4    22 1   
    12     4    27 1   
    13     4    28 1   
    14     5    25 1   
    15     5    29 1   
    16     5    30 1   
    17     6    25 1   
    18     6    31 1   
    19     6    32 1   
    20     6    33 1   
    21     7     8 1   
    22     7    12 1   
    23     7    34 1   
    24     7    35 1   
    25     8     9 1   
    26     8    36 1   
    27     8    37 1   
    28     9    10 1   
    29     9    38 1   
    30     9    39 1   
    31    10    11 1   
    32    10    51 2   
    33    11    12 2   
    34    11    13 1   
    35    12    20 1   
    36    13    21 2   
    37    14    40 1   
    38    15    23 1   
    39    16    24 1   
    40    17    23 1   
    41    17    41 1   
    42    17    42 1   
    43    17    43 1   
    44    18    25 1   
    45    18    44 1   
    46    18    45 1   
    47    18    46 1   
    48    19    25 1   
    49    19    47 1   
    50    19    48 1   
    51    19    49 1   
    52    20    50 1   
    53    23    52 2   
    54    23    53 2   
@<TRIPOS>SUBSTRUCTURE
     1 T5I         1 TEMP              0 ****  ****    0 ROOT
