@<TRIPOS>MOLECULE
T5I
   53    54     1     0     0
SMALL
No Charge or Current Charge


@<TRIPOS>ATOM
      1 C10          1.8460    -2.0190    84.3020 ca         1 T5I      -0.049600
      2 C13          0.9510    -0.3370    85.8400 ca         1 T5I      -0.023000
      3 C15         -0.5170    -2.0680    84.9600 ca         1 T5I       0.223100
      4 C20         -2.0230    -3.9000    85.5100 c3         1 T5I       0.205600
      5 C21         -3.5220    -4.2310    85.3500 c3         1 T5I      -0.087400
      6 C24         -3.0170    -6.1410    83.1240 c3         1 T5I      -0.104767
      7 C1           4.0690    -6.0490    82.1290 c6         1 T5I      -0.073200
      8 C2           4.0740    -6.8410    83.4550 c6         1 T5I      -0.063400
      9 C3           2.8980    -6.3870    84.3440 c6         1 T5I      -0.179400
     10 C4           2.9520    -4.8800    84.6060 c          1 T5I       0.608300
     11 C5           3.3080    -4.0120    83.4530 ce         1 T5I      -0.479400
     12 C6           3.8350    -4.5580    82.3340 c2         1 T5I       0.288900
     13 C9           3.0420    -2.5500    83.5510 c          1 T5I       0.629900
     14 C12          2.0200    -0.8790    85.1120 ca         1 T5I      -0.092000
     15 C14         -0.3270    -0.9330    85.7740 ca         1 T5I      -0.254500
     16 C16          0.5570    -2.5980    84.2000 ca         1 T5I       0.116000
     17 C18         -1.0990     1.0990    87.6770 c3         1 T5I      -0.351100
     18 C23         -3.7250    -3.3280    82.5140 c3         1 T5I      -0.104767
     19 C25         -5.7560    -5.1580    83.6370 c3         1 T5I      -0.104767
     20 O7           4.1930    -3.8310    81.2720 oh         1 T5I      -0.535100
     21 O11          3.7290    -1.7830    82.8850 o          1 T5I      -0.589100
     22 O19         -1.7700    -2.6320    84.8780 os         1 T5I      -0.388100
     23 S26         -1.7340    -0.2610    86.6900 sy         1 T5I       1.090500
     24 Cl1          0.2410    -3.8980    83.0350 cl         1 T5I      -0.182000
     25 SI2         -3.9990    -4.7120    83.6560 s6         1 T5I      -0.203000
     26 H1           1.1400     0.5430    86.4490 ha         1 T5I       0.122000
     27 H2          -1.4120    -4.7020    85.0790 h1         1 T5I       0.046200
     28 H3          -1.7880    -3.8380    86.5810 h1         1 T5I       0.046200
     29 H4          -4.1300    -3.3660    85.6410 h1         1 T5I       0.074700
     30 H5          -3.7790    -5.0730    86.0050 h1         1 T5I       0.074700
     31 H6          -2.8700    -6.8070    83.9830 h1         1 T5I       0.055922
     32 H7          -3.5610    -6.6640    82.3270 h1         1 T5I       0.055922
     33 H8          -2.0490    -5.7860    82.7500 h1         1 T5I       0.055922
     34 H9           3.2780    -6.4370    81.4730 hc         1 T5I       0.082700
     35 H10          5.0170    -6.2130    81.5980 hc         1 T5I       0.082700
     36 H11          4.0120    -7.9200    83.2540 hc         1 T5I       0.058200
     37 H12          5.0220    -6.6710    83.9860 hc         1 T5I       0.058200
     38 H13          2.8310    -6.9390    85.2900 hc         1 T5I       0.074700
     39 H14          1.9820    -6.5690    83.7660 hc         1 T5I       0.074700
     40 H17          3.0010    -0.4110    85.1830 ha         1 T5I       0.129000
     41 H18         -1.9320     1.5060    88.2600 h1         1 T5I       0.103700
     42 H19         -0.3220     0.7100    88.3430 h1         1 T5I       0.103700
     43 H20         -0.7000     1.8620    87.0010 h1         1 T5I       0.103700
     44 H21         -4.0190    -2.3970    83.0140 h1         1 T5I       0.055922
     45 H22         -2.6620    -3.2950    82.2490 h1         1 T5I       0.055922
     46 H23         -4.3350    -3.4860    81.6160 h1         1 T5I       0.055922
     47 H24         -6.3410    -4.2910    83.9690 h1         1 T5I       0.055922
     48 H25         -6.0370    -5.4370    82.6150 h1         1 T5I       0.055922
     49 H26         -5.9110    -6.0040    84.3180 h1         1 T5I       0.055922
     50 H27          4.1170    -2.8920    81.5770 ho         1 T5I       0.546000
     51 O8           2.7200    -4.4280    85.7170 o          1 T5I      -0.540100
     52 O27         -2.1960    -1.2850    87.6350 o          1 T5I      -0.519500
     53 O28         -2.6690     0.3260    85.7210 o          1 T5I      -0.519500
@<TRIPOS>BOND
     1     1    13 1   
     2     1    14 ar  
     3     1    16 ar  
     4     2    14 ar  
     5     2    15 ar  
     6     2    26 1   
     7     3    15 ar  
     8     3    16 ar  
     9     3    22 1   
    10     4     5 1   
    11     4    22 1   
    12     4    27 1   
    13     4    28 1   
    14     5    25 1   
    15     5    29 1   
    16     5    30 1   
    17     6    25 1   
    18     6    31 1   
    19     6    32 1   
    20     6    33 1   
    21     7     8 1   
    22     7    12 1   
    23     7    34 1   
    24     7    35 1   
    25     8     9 1   
    26     8    36 1   
    27     8    37 1   
    28     9    10 1   
    29     9    38 1   
    30     9    39 1   
    31    10    11 1   
    32    10    51 2   
    33    11    12 2   
    34    11    13 1   
    35    12    20 1   
    36    13    21 2   
    37    14    40 1   
    38    15    23 1   
    39    16    24 1   
    40    17    23 1   
    41    17    41 1   
    42    17    42 1   
    43    17    43 1   
    44    18    25 1   
    45    18    44 1   
    46    18    45 1   
    47    18    46 1   
    48    19    25 1   
    49    19    47 1   
    50    19    48 1   
    51    19    49 1   
    52    20    50 1   
    53    23    52 2   
    54    23    53 2   
@<TRIPOS>SUBSTRUCTURE
     1 T5I         1 TEMP              0 ****  ****    0 ROOT
