@<TRIPOS>MOLECULE
T5J
   36    38     1     0     0
SMALL
bcc


@<TRIPOS>ATOM
      1 C1           6.1660    -0.6440    -0.2270 c3         1 T5J      -0.032800
      2 C2           4.7730    -0.0930    -0.1770 ca         1 T5J      -0.147300
      3 C3           4.5040     1.2720    -0.1080 ca         1 T5J      -0.074000
      4 C4           3.2150     1.7690    -0.0710 ca         1 T5J      -0.212000
      5 C5           2.1140     0.9050    -0.0990 ca         1 T5J       0.199600
      6 C6           2.3510    -0.4690    -0.1660 ca         1 T5J      -0.196000
      7 C7           3.6590    -0.9130    -0.2040 ca         1 T5J       0.160900
      8 F8           3.8540    -2.2440    -0.2750 f          1 T5J      -0.146900
      9 N9           0.8560     1.4880    -0.0650 nu         1 T5J      -0.746300
     10 C10         -0.3920     0.9330    -0.0530 ca         1 T5J       0.706200
     11 C11         -1.4930     1.8340    -0.0380 ca         1 T5J      -0.304300
     12 C12         -2.7710     1.3670    -0.0250 ca         1 T5J       0.009700
     13 C13         -2.9810    -0.0550    -0.0250 ca         1 T5J      -0.245300
     14 C14         -1.8090    -0.8690    -0.0420 ca         1 T5J       0.481600
     15 N15         -0.5520    -0.3600    -0.0560 nb         1 T5J      -0.747000
     16 C16         -1.9150    -2.2720    -0.0460 ca         1 T5J      -0.224300
     17 C17         -3.1490    -2.8680    -0.0320 ca         1 T5J      -0.067000
     18 C18         -4.3120    -2.0960    -0.0140 ca         1 T5J      -0.195000
     19 C19         -4.2440    -0.7170    -0.0100 ca         1 T5J       0.177100
     20 O20         -5.4360    -0.0890     0.0090 oh         1 T5J      -0.507100
     21 C21         -3.8760     2.3830    -0.0180 c3         1 T5J      -0.074800
     22 H11C         6.3550    -1.3510     0.5820 hc         1 T5J       0.044367
     23 H12C         6.3610    -1.1680    -1.1650 hc         1 T5J       0.044367
     24 H13C         6.8970     0.1590    -0.1420 hc         1 T5J       0.044367
     25 H3           5.3330     1.9700    -0.0840 ha         1 T5J       0.131000
     26 H4           3.0590     2.8400    -0.0190 ha         1 T5J       0.129000
     27 H6           1.5390    -1.1780    -0.1880 ha         1 T5J       0.188000
     28 H9           0.8690     2.4960    -0.0470 hn         1 T5J       0.439800
     29 H11         -1.3110     2.9020    -0.0400 ha         1 T5J       0.136000
     30 H211        -4.5140     2.3080    -0.9020 hc         1 T5J       0.053700
     31 H212        -4.4950     2.3160     0.8810 hc         1 T5J       0.053700
     32 H213        -3.4640     3.3900    -0.0260 hc         1 T5J       0.053700
     33 H16         -1.0060    -2.8590    -0.0590 ha         1 T5J       0.152000
     34 H17         -3.2320    -3.9470    -0.0340 ha         1 T5J       0.136000
     35 H18         -5.2840    -2.5720    -0.0020 ha         1 T5J       0.148000
     36 H20         -5.3610     0.8680     0.0220 ho         1 T5J       0.431000
@<TRIPOS>BOND
     1     1     2 1   
     2     1    22 1   
     3     1    23 1   
     4     1    24 1   
     5     2     3 ar  
     6     2     7 ar  
     7     3     4 ar  
     8     3    25 1   
     9     4     5 ar  
    10     4    26 1   
    11     5     6 ar  
    12     5     9 1   
    13     6     7 ar  
    14     6    27 1   
    15     7     8 1   
    16     9    10 1   
    17     9    28 1   
    18    10    11 ar  
    19    10    15 ar  
    20    11    12 ar  
    21    11    29 1   
    22    12    13 ar  
    23    12    21 1   
    24    13    14 ar  
    25    13    19 ar  
    26    14    15 ar  
    27    14    16 ar  
    28    16    17 ar  
    29    16    33 1   
    30    17    18 ar  
    31    17    34 1   
    32    18    19 ar  
    33    18    35 1   
    34    19    20 1   
    35    20    36 1   
    36    21    30 1   
    37    21    31 1   
    38    21    32 1   
@<TRIPOS>SUBSTRUCTURE
     1 T5J         1 TEMP              0 ****  ****    0 ROOT
