@<TRIPOS>MOLECULE
T5J
   36    38     1     0     0
SMALL
No Charge or Current Charge


@<TRIPOS>ATOM
      1 C1           6.1760    -0.6800    -0.2930 c3         1 T5J      -0.032800
      2 C2           4.7610    -0.1160    -0.2320 ca         1 T5J      -0.147300
      3 C3           4.5170     1.1280     0.3790 ca         1 T5J      -0.056000
      4 C4           3.2100     1.6430     0.4310 ca         1 T5J      -0.194000
      5 C5           2.1330     0.9250    -0.1120 ca         1 T5J       0.338000
      6 C6           2.3780    -0.3080    -0.7360 ca         1 T5J      -0.178000
      7 C7           3.6790    -0.8250    -0.7910 ca         1 T5J       0.196000
      8 F8           3.8890    -2.0160    -1.3960 f          1 T5J      -0.182000
      9 N9           0.8610     1.4960    -0.0480 nu         1 T5J      -0.939900
     10 C10         -0.4260     1.0050    -0.0560 ca         1 T5J       0.640900
     11 C11         -1.5100     1.8670    -0.1970 ca         1 T5J      -0.221000
     12 C12         -2.8190     1.3570    -0.1710 ca         1 T5J       0.009700
     13 C13         -2.9780    -0.0520     0.0130 ca         1 T5J      -0.180000
     14 C14         -1.7930    -0.8350     0.1620 ca         1 T5J       0.351000
     15 N15         -0.5550    -0.3030     0.1310 nb         1 T5J      -0.747000
     16 C16         -1.8890    -2.2250     0.3510 ca         1 T5J      -0.141000
     17 C17         -3.1290    -2.8690     0.3960 ca         1 T5J      -0.049000
     18 C18         -4.2950    -2.1150     0.2500 ca         1 T5J      -0.177000
     19 C19         -4.2340    -0.7270     0.0610 ca         1 T5J       0.177100
     20 O20         -5.4270    -0.0860    -0.0710 oh         1 T5J      -0.546100
     21 C21         -3.9570     2.3660    -0.3410 c3         1 T5J      -0.074800
     22 H11C         6.2310    -1.6560     0.2020 hc         1 T5J       0.044367
     23 H12C         6.5010    -0.8120    -1.3320 hc         1 T5J       0.044367
     24 H13C         6.9010    -0.0190     0.1980 hc         1 T5J       0.044367
     25 H3           5.3370     1.6980     0.8120 ha         1 T5J       0.113000
     26 H4           3.0380     2.6060     0.9050 ha         1 T5J       0.111000
     27 H6           1.5710    -0.8660    -1.1940 ha         1 T5J       0.170000
     28 H9           0.8760     2.4980     0.1150 hn         1 T5J       0.495000
     29 H11         -1.3320     2.9290    -0.3320 ha         1 T5J       0.118000
     30 H211        -4.5520     2.1570    -1.2380 hc         1 T5J       0.053700
     31 H212        -4.6130     2.3860     0.5380 hc         1 T5J       0.053700
     32 H213        -3.5750     3.3870    -0.4600 hc         1 T5J       0.053700
     33 H16         -0.9810    -2.8110     0.4640 ha         1 T5J       0.134000
     34 H17         -3.1830    -3.9460     0.5420 ha         1 T5J       0.118000
     35 H18         -5.2620    -2.6120     0.2840 ha         1 T5J       0.130000
     36 H20         -5.2430     0.8640    -0.1990 ho         1 T5J       0.470000
@<TRIPOS>BOND
     1     1     2 1   
     2     1    22 1   
     3     1    23 1   
     4     1    24 1   
     5     2     3 ar  
     6     2     7 ar  
     7     3     4 ar  
     8     3    25 1   
     9     4     5 ar  
    10     4    26 1   
    11     5     6 ar  
    12     5     9 1   
    13     6     7 ar  
    14     6    27 1   
    15     7     8 1   
    16     9    10 1   
    17     9    28 1   
    18    10    11 ar  
    19    10    15 ar  
    20    11    12 ar  
    21    11    29 1   
    22    12    13 ar  
    23    12    21 1   
    24    13    14 ar  
    25    13    19 ar  
    26    14    15 ar  
    27    14    16 ar  
    28    16    17 ar  
    29    16    33 1   
    30    17    18 ar  
    31    17    34 1   
    32    18    19 ar  
    33    18    35 1   
    34    19    20 1   
    35    20    36 1   
    36    21    30 1   
    37    21    31 1   
    38    21    32 1   
@<TRIPOS>SUBSTRUCTURE
     1 T5J         1 TEMP              0 ****  ****    0 ROOT
