@<TRIPOS>MOLECULE
T5L
   22    22     1     0     0
SMALL
abcg2


@<TRIPOS>ATOM
      1 C1         -12.3740   -19.2330     7.3600 c6         1 T5L      -0.153700
      2 C2         -13.6160   -20.1220     7.2280 c6         1 T5L      -0.153700
      3 C3         -13.5390   -21.1330     6.0670 c          1 T5L       0.728500
      4 O1         -10.0480   -19.6500     6.9550 o          1 T5L      -0.763250
      5 O3         -13.0220   -20.7510     4.9830 o          1 T5L      -0.763250
      6 O2         -14.0460   -22.2710     6.2690 o          1 T5L      -0.763250
      7 C4         -14.8830   -19.2640     7.0650 c6         1 T5L      -0.060900
      8 C5         -15.0500   -18.2670     8.2120 c6         1 T5L      -0.068400
      9 C6         -13.8120   -17.3840     8.3580 c6         1 T5L      -0.068400
     10 C7         -12.5470   -18.2290     8.5130 c6         1 T5L      -0.060900
     11 C          -11.0740   -20.0310     7.5820 c          1 T5L       0.728500
     12 O          -11.1090   -20.9830     8.4070 o          1 T5L      -0.763250
     13 H1         -12.2560   -18.6680     6.4320 hc         1 T5L       0.045200
     14 H2         -13.7190   -20.7000     8.1500 hc         1 T5L       0.045200
     15 H4         -14.8220   -18.7180     6.1160 hc         1 T5L       0.020450
     16 H5         -15.7590   -19.9160     7.0010 hc         1 T5L       0.020450
     17 H6         -15.9400   -17.6520     8.0510 hc         1 T5L      -0.001800
     18 H7         -15.2100   -18.8190     9.1450 hc         1 T5L      -0.001800
     19 H8         -13.7160   -16.7500     7.4690 hc         1 T5L      -0.001800
     20 H9         -13.9220   -16.7120     9.2150 hc         1 T5L      -0.001800
     21 H10        -12.5970   -18.7820     9.4570 hc         1 T5L       0.020450
     22 H11        -11.6660   -17.5820     8.5680 hc         1 T5L       0.020450
@<TRIPOS>BOND
     1     1     2 1   
     2     1    10 1   
     3     1    11 1   
     4     1    13 1   
     5     2     3 1   
     6     2     7 1   
     7     2    14 1   
     8     3     5 1   
     9     3     6 1   
    10     4    11 1   
    11     7     8 1   
    12     7    15 1   
    13     7    16 1   
    14     8     9 1   
    15     8    17 1   
    16     8    18 1   
    17     9    10 1   
    18     9    19 1   
    19     9    20 1   
    20    10    21 1   
    21    10    22 1   
    22    11    12 1   
@<TRIPOS>SUBSTRUCTURE
     1 T5L         1 TEMP              0 ****  ****    0 ROOT
