@<TRIPOS>MOLECULE
T5L
   22    22     1     0     0
SMALL
No Charge or Current Charge


@<TRIPOS>ATOM
      1 C1         -12.3570   -19.2410     7.3960 c6         1 T5L      -0.153700
      2 C2         -13.6390   -20.1250     7.2030 c6         1 T5L      -0.153700
      3 C3         -13.4910   -21.1420     6.0370 c          1 T5L       0.728500
      4 O1         -10.1760   -19.9690     6.7510 o          1 T5L      -0.763250
      5 O3         -13.3360   -20.7170     4.9010 o          1 T5L      -0.763250
      6 O2         -13.5630   -22.3340     6.3000 o          1 T5L      -0.763250
      7 C4         -14.9070   -19.2370     7.0310 c6         1 T5L      -0.060900
      8 C5         -15.0740   -18.2420     8.2060 c6         1 T5L      -0.068400
      9 C6         -13.8130   -17.3620     8.3750 c6         1 T5L      -0.068400
     10 C7         -12.5470   -18.2330     8.5670 c6         1 T5L      -0.060900
     11 C          -11.0690   -20.0920     7.5770 c          1 T5L       0.728500
     12 O          -10.9830   -20.8310     8.5480 o          1 T5L      -0.763250
     13 H1         -12.2160   -18.6540     6.4780 hc         1 T5L       0.045200
     14 H2         -13.7770   -20.7170     8.1180 hc         1 T5L       0.045200
     15 H4         -14.8480   -18.6770     6.0870 hc         1 T5L       0.020450
     16 H5         -15.7990   -19.8740     6.9600 hc         1 T5L       0.020450
     17 H6         -15.9510   -17.6050     8.0320 hc         1 T5L      -0.001800
     18 H7         -15.2690   -18.7950     9.1350 hc         1 T5L      -0.001800
     19 H8         -13.6900   -16.7170     7.4950 hc         1 T5L      -0.001800
     20 H9         -13.9390   -16.6940     9.2380 hc         1 T5L      -0.001800
     21 H10        -12.6200   -18.7740     9.5210 hc         1 T5L       0.020450
     22 H11        -11.6640   -17.5840     8.6450 hc         1 T5L       0.020450
@<TRIPOS>BOND
     1     1     2 1   
     2     1    10 1   
     3     1    11 1   
     4     1    13 1   
     5     2     3 1   
     6     2     7 1   
     7     2    14 1   
     8     3     5 1   
     9     3     6 1   
    10     4    11 1   
    11     7     8 1   
    12     7    15 1   
    13     7    16 1   
    14     8     9 1   
    15     8    17 1   
    16     8    18 1   
    17     9    10 1   
    18     9    19 1   
    19     9    20 1   
    20    10    21 1   
    21    10    22 1   
    22    11    12 1   
@<TRIPOS>SUBSTRUCTURE
     1 T5L         1 TEMP              0 ****  ****    0 ROOT
