@<TRIPOS>MOLECULE
T5M
   43    45     1     0     0
SMALL
No Charge or Current Charge


@<TRIPOS>ATOM
      1 C1           4.2290     1.9410    -0.9130 c3         1 T5M      -0.084767
      2 C2           4.3920     0.4550    -0.4730 c3         1 T5M       0.016300
      3 C3           5.5630     0.4260     0.5510 c3         1 T5M      -0.084767
      4 C4           3.0890    -0.1390     0.1700 ca         1 T5M      -0.100300
      5 C5           1.9200     0.6600     0.3020 ca         1 T5M      -0.033000
      6 C6           0.7260     0.1080     0.8760 ca         1 T5M      -0.183600
      7 C7          -0.4840     1.0060     1.0030 c          1 T5M       0.621700
      8 O8          -0.3500     2.1930     1.2720 o          1 T5M      -0.603100
      9 N9          -1.7670     0.4300     0.9010 n          1 T5M      -0.412800
     10 C10         -2.9910     1.2650     1.1530 c5         1 T5M       0.151800
     11 C11         -4.0070     0.5880     0.2740 ca         1 T5M      -0.103300
     12 C12         -5.3490     0.9590     0.0930 ca         1 T5M      -0.089500
     13 C13         -6.1510     0.2020    -0.7830 ca         1 T5M      -0.107000
     14 C14         -5.6050    -0.9070    -1.4640 ca         1 T5M      -0.107000
     15 C15         -4.2560    -1.2620    -1.2690 ca         1 T5M      -0.089500
     16 C16         -3.4730    -0.4940    -0.3920 ca         1 T5M      -0.103300
     17 C17         -2.0250    -0.7100    -0.0450 c5         1 T5M       0.151800
     18 C18          0.6890    -1.2360     1.3630 ca         1 T5M      -0.043000
     19 C20          1.8450    -2.0120     1.2300 ca         1 T5M      -0.224000
     20 C19          4.7790    -0.3430    -1.7510 c3         1 T5M      -0.084767
     21 C21          3.0160    -1.4890     0.6450 ca         1 T5M       0.162100
     22 O22          4.0790    -2.3390     0.5670 oh         1 T5M      -0.530100
     23 H11C         5.1560     2.3240    -1.3580 hc         1 T5M       0.036922
     24 H12C         3.4410     2.0480    -1.6690 hc         1 T5M       0.036922
     25 H13C         3.9900     2.5860    -0.0590 hc         1 T5M       0.036922
     26 H31C         5.2770     0.9360     1.4790 hc         1 T5M       0.036922
     27 H32C         5.8710    -0.5920     0.8060 hc         1 T5M       0.036922
     28 H33C         6.4480     0.9340     0.1480 hc         1 T5M       0.036922
     29 H191         5.6260     0.1280    -2.2650 hc         1 T5M       0.036922
     30 H192         5.0760    -1.3720    -1.5280 hc         1 T5M       0.036922
     31 H193         3.9370    -0.3780    -2.4520 hc         1 T5M       0.036922
     32 H5           1.8870     1.6930    -0.0310 ha         1 T5M       0.133000
     33 H18         -0.1930    -1.6460     1.8520 ha         1 T5M       0.118000
     34 H101        -3.2890     1.2340     2.2090 h1         1 T5M       0.063700
     35 H102        -2.8530     2.3130     0.8530 h1         1 T5M       0.063700
     36 H171        -1.3880    -0.6560    -0.9380 h1         1 T5M       0.063700
     37 H172        -1.8880    -1.6870     0.4340 h1         1 T5M       0.063700
     38 H12         -5.7640     1.8160     0.6200 ha         1 T5M       0.117500
     39 H13         -7.1940     0.4730    -0.9360 ha         1 T5M       0.115000
     40 H14         -6.2270    -1.4900    -2.1400 ha         1 T5M       0.115000
     41 H15         -3.8280    -2.1160    -1.7900 ha         1 T5M       0.117500
     42 H20          1.8290    -3.0350     1.5970 ha         1 T5M       0.113000
     43 H22          3.8120    -3.2010     0.9490 ho         1 T5M       0.464000
@<TRIPOS>BOND
     1     1     2 1   
     2     1    23 1   
     3     1    24 1   
     4     1    25 1   
     5     2     3 1   
     6     2     4 1   
     7     2    20 1   
     8     3    26 1   
     9     3    27 1   
    10     3    28 1   
    11     4     5 ar  
    12     4    21 ar  
    13     5     6 ar  
    14     5    32 1   
    15     6     7 1   
    16     6    18 ar  
    17     7     8 2   
    18     7     9 1   
    19     9    10 1   
    20     9    17 1   
    21    10    11 1   
    22    10    34 1   
    23    10    35 1   
    24    11    12 ar  
    25    11    16 ar  
    26    12    13 ar  
    27    12    38 1   
    28    13    14 ar  
    29    13    39 1   
    30    14    15 ar  
    31    14    40 1   
    32    15    16 ar  
    33    15    41 1   
    34    16    17 1   
    35    17    36 1   
    36    17    37 1   
    37    18    19 ar  
    38    18    33 1   
    39    19    21 ar  
    40    19    42 1   
    41    20    29 1   
    42    20    30 1   
    43    20    31 1   
    44    21    22 1   
    45    22    43 1   
@<TRIPOS>SUBSTRUCTURE
     1 T5M         1 TEMP              0 ****  ****    0 ROOT
