@<TRIPOS>MOLECULE
T5M
   43    45     1     0     0
SMALL
bcc


@<TRIPOS>ATOM
      1 C1           4.0230     1.9160    -0.8450 c3         1 T5M      -0.084767
      2 C2           4.2800     0.4560    -0.4590 c3         1 T5M       0.016300
      3 C3           5.4400     0.4570     0.5490 c3         1 T5M      -0.084767
      4 C4           3.0380    -0.1840     0.1670 ca         1 T5M      -0.100300
      5 C5           1.8680     0.5420     0.3540 ca         1 T5M      -0.051000
      6 C6           0.7060     0.0040     0.9060 ca         1 T5M      -0.183600
      7 C7          -0.4570     0.9130     1.1120 c          1 T5M       0.688700
      8 O8          -0.2840     2.0500     1.5400 o          1 T5M      -0.603100
      9 N9          -1.6890     0.4570     0.8140 n          1 T5M      -0.479800
     10 C10         -2.8390     1.3440     0.9800 c5         1 T5M       0.151800
     11 C11         -3.9010     0.6610     0.1810 ca         1 T5M      -0.103300
     12 C12         -5.2080     1.0660    -0.0380 ca         1 T5M      -0.107500
     13 C13         -6.0260     0.2760    -0.8370 ca         1 T5M      -0.125000
     14 C14         -5.5380    -0.9000    -1.4020 ca         1 T5M      -0.125000
     15 C15         -4.2290    -1.3060    -1.1710 ca         1 T5M      -0.107500
     16 C16         -3.4180    -0.5110    -0.3750 ca         1 T5M      -0.103300
     17 C17         -1.9990    -0.7470     0.0400 c5         1 T5M       0.151800
     18 C18          0.7220    -1.3160     1.3330 ca         1 T5M      -0.061000
     19 C20          1.8740    -2.0670     1.1870 ca         1 T5M      -0.242000
     20 C19          4.6820    -0.2820    -1.7450 c3         1 T5M      -0.084767
     21 C21          3.0150    -1.5240     0.6020 ca         1 T5M       0.162100
     22 O22          4.1190    -2.2800     0.4530 oh         1 T5M      -0.491100
     23 H11C         4.9290     2.3350    -1.2840 hc         1 T5M       0.036922
     24 H12C         3.2270     2.0170    -1.5860 hc         1 T5M       0.036922
     25 H13C         3.7670     2.5350     0.0170 hc         1 T5M       0.036922
     26 H31C         5.1700     1.0200     1.4440 hc         1 T5M       0.036922
     27 H32C         5.7360    -0.5430     0.8560 hc         1 T5M       0.036922
     28 H33C         6.3150     0.9390     0.1070 hc         1 T5M       0.036922
     29 H191         5.5220     0.2330    -2.2170 hc         1 T5M       0.036922
     30 H192         4.9870    -1.3100    -1.5680 hc         1 T5M       0.036922
     31 H193         3.8570    -0.2910    -2.4600 hc         1 T5M       0.036922
     32 H5           1.8400     1.5790     0.0540 ha         1 T5M       0.151000
     33 H18         -0.1370    -1.7660     1.8120 ha         1 T5M       0.136000
     34 H101        -3.1120     1.4520     2.0340 h1         1 T5M       0.063700
     35 H102        -2.6220     2.3450     0.5990 h1         1 T5M       0.063700
     36 H171        -1.3220    -0.8580    -0.8100 h1         1 T5M       0.063700
     37 H172        -1.9250    -1.6550     0.6410 h1         1 T5M       0.063700
     38 H12         -5.5830     1.9740     0.4160 ha         1 T5M       0.135500
     39 H13         -7.0500     0.5740    -1.0210 ha         1 T5M       0.133000
     40 H14         -6.1850    -1.5040    -2.0240 ha         1 T5M       0.133000
     41 H15         -3.8550    -2.2250    -1.6030 ha         1 T5M       0.135500
     42 H20          1.8890    -3.0940     1.5360 ha         1 T5M       0.131000
     43 H22          3.9680    -3.1660     0.8030 ho         1 T5M       0.425000
@<TRIPOS>BOND
     1     1     2 1   
     2     1    23 1   
     3     1    24 1   
     4     1    25 1   
     5     2     3 1   
     6     2     4 1   
     7     2    20 1   
     8     3    26 1   
     9     3    27 1   
    10     3    28 1   
    11     4     5 ar  
    12     4    21 ar  
    13     5     6 ar  
    14     5    32 1   
    15     6     7 1   
    16     6    18 ar  
    17     7     8 2   
    18     7     9 1   
    19     9    10 1   
    20     9    17 1   
    21    10    11 1   
    22    10    34 1   
    23    10    35 1   
    24    11    12 ar  
    25    11    16 ar  
    26    12    13 ar  
    27    12    38 1   
    28    13    14 ar  
    29    13    39 1   
    30    14    15 ar  
    31    14    40 1   
    32    15    16 ar  
    33    15    41 1   
    34    16    17 1   
    35    17    36 1   
    36    17    37 1   
    37    18    19 ar  
    38    18    33 1   
    39    19    21 ar  
    40    19    42 1   
    41    20    29 1   
    42    20    30 1   
    43    20    31 1   
    44    21    22 1   
    45    22    43 1   
@<TRIPOS>SUBSTRUCTURE
     1 T5M         1 TEMP              0 ****  ****    0 ROOT
