@<TRIPOS>MOLECULE
T5N
   33    33     1     0     0
SMALL
abcg2


@<TRIPOS>ATOM
      1 N           17.1650    18.9520    -1.9740 ns         1 T5N      -0.503900
      2 C           14.9680    17.9590     0.8850 c3         1 T5N      -0.096600
      3 O           15.6340    20.1330    -0.0210 os         1 T5N      -0.360100
      4 C1          15.3670    18.7650    -0.3430 c3         1 T5N       0.115000
      5 C10         18.3140    18.5610    -2.7570 c3         1 T5N       0.100000
      6 C11         19.6360    18.8030    -2.0430 c3         1 T5N       0.053600
      7 C2          16.6460    20.5180     0.7840 ca         1 T5N       0.149100
      8 C3          17.6460    19.6960     1.2980 ca         1 T5N      -0.177000
      9 C4          18.6530    20.2340     2.0920 ca         1 T5N      -0.048500
     10 C5          18.6670    21.5870     2.3740 ca         1 T5N      -0.055900
     11 C6          17.6780    22.4190     1.8660 ca         1 T5N      -0.048500
     12 C7          16.6760    21.8830     1.0790 ca         1 T5N      -0.177000
     13 C8          14.1880    18.8250    -1.3130 c3         1 T5N      -0.096600
     14 C9          16.5600    18.1390    -1.0940 c          1 T5N       0.573100
     15 O1          16.8770    16.9730    -0.9220 o          1 T5N      -0.594100
     16 S           19.9800    20.5580    -1.7100 sh         1 T5N      -0.460800
     17 BR          20.0380    22.3100     3.4530 br         1 T5N      -0.091100
     18 H1          16.8510    19.9060    -2.0580 hn         1 T5N       0.330500
     19 H2          14.1430    18.4620     1.3900 hc         1 T5N       0.056700
     20 H3          14.6200    16.9730     0.5850 hc         1 T5N       0.056700
     21 H4          15.7700    17.8170     1.6070 hc         1 T5N       0.056700
     22 H5          18.2910    19.1180    -3.6930 h1         1 T5N       0.067700
     23 H6          18.2340    17.5020    -3.0060 h1         1 T5N       0.067700
     24 H7          19.6890    18.2370    -1.1130 h1         1 T5N       0.080700
     25 H8          20.4540    18.4630    -2.6780 h1         1 T5N       0.080700
     26 H9          17.6850    18.6340     1.1040 ha         1 T5N       0.132500
     27 H10         19.4200    19.5750     2.4770 ha         1 T5N       0.133000
     28 H11         17.6770    23.4800     2.0750 ha         1 T5N       0.133000
     29 H12         15.9060    22.5300     0.6790 ha         1 T5N       0.132500
     30 H13         13.3070    19.2220    -0.8080 hc         1 T5N       0.056700
     31 H14         14.4050    19.4520    -2.1770 hc         1 T5N       0.056700
     32 H15         13.9480    17.8240    -1.6700 hc         1 T5N       0.056700
     33 H16         19.0760    20.7400    -0.7410 hs         1 T5N       0.220800
@<TRIPOS>BOND
     1     1     5 1   
     2     1    14 1   
     3     1    18 1   
     4     2     4 1   
     5     2    19 1   
     6     2    20 1   
     7     2    21 1   
     8     3     4 1   
     9     3     7 1   
    10     4    13 1   
    11     4    14 1   
    12     5     6 1   
    13     5    22 1   
    14     5    23 1   
    15     6    16 1   
    16     6    24 1   
    17     6    25 1   
    18     7     8 ar  
    19     7    12 ar  
    20     8     9 ar  
    21     8    26 1   
    22     9    10 ar  
    23     9    27 1   
    24    10    11 ar  
    25    10    17 1   
    26    11    12 ar  
    27    11    28 1   
    28    12    29 1   
    29    13    30 1   
    30    13    31 1   
    31    13    32 1   
    32    14    15 2   
    33    16    33 1   
@<TRIPOS>SUBSTRUCTURE
     1 T5N         1 TEMP              0 ****  ****    0 ROOT
