@<TRIPOS>MOLECULE
T5N
   33    33     1     0     0
SMALL
No Charge or Current Charge


@<TRIPOS>ATOM
      1 N           17.2690    19.0290    -1.9390 ns         1 T5N      -0.503900
      2 C           15.0380    17.9410     0.9120 c3         1 T5N      -0.096600
      3 O           15.5620    20.1240    -0.0510 os         1 T5N      -0.360100
      4 C1          15.3250    18.7290    -0.4000 c3         1 T5N       0.115000
      5 C10         18.4070    18.6830    -2.8000 c3         1 T5N       0.100000
      6 C11         19.7290    18.5470    -2.0170 c3         1 T5N       0.053600
      7 C2          16.5960    20.6030     0.7400 ca         1 T5N       0.149100
      8 C3          17.6910    19.8210     1.1740 ca         1 T5N      -0.177000
      9 C4          18.6980    20.3950     1.9710 ca         1 T5N      -0.048500
     10 C5          18.6250    21.7520     2.3250 ca         1 T5N      -0.055900
     11 C6          17.5470    22.5370     1.8880 ca         1 T5N      -0.048500
     12 C7          16.5390    21.9600     1.0970 ca         1 T5N      -0.177000
     13 C8          14.0430    18.7630    -1.2660 c3         1 T5N      -0.096600
     14 C9          16.4840    18.1160    -1.2610 c          1 T5N       0.573100
     15 O1          16.7200    16.9150    -1.3070 o          1 T5N      -0.594100
     16 S           20.2780    20.1120    -1.1800 sh         1 T5N      -0.460800
     17 Br          20.0020    22.5320     3.3990 br         1 T5N      -0.091100
     18 H1          17.0140    20.0050    -1.8310 hn         1 T5N       0.330500
     19 H2          14.3090    18.4760     1.5330 hc         1 T5N       0.056700
     20 H3          14.6210    16.9540     0.6810 hc         1 T5N       0.056700
     21 H4          15.9380    17.7770     1.5110 hc         1 T5N       0.056700
     22 H5          18.5200    19.4630    -3.5640 h1         1 T5N       0.067700
     23 H6          18.1940    17.7390    -3.3190 h1         1 T5N       0.067700
     24 H7          19.6190    17.7620    -1.2570 h1         1 T5N       0.080700
     25 H8          20.5200    18.2320    -2.7090 h1         1 T5N       0.080700
     26 H9          17.7920    18.7760     0.9060 ha         1 T5N       0.132500
     27 H10         19.5380    19.7910     2.3060 ha         1 T5N       0.133000
     28 H11         17.4920    23.5890     2.1610 ha         1 T5N       0.133000
     29 H12         15.7040    22.5690     0.7590 ha         1 T5N       0.132500
     30 H13         13.2070    19.2070    -0.7110 hc         1 T5N       0.056700
     31 H14         14.2040    19.3560    -2.1740 hc         1 T5N       0.056700
     32 H15         13.7510    17.7510    -1.5700 hc         1 T5N       0.056700
     33 H16         19.1900    20.2460    -0.3800 hs         1 T5N       0.220800
@<TRIPOS>BOND
     1     1     5 1   
     2     1    14 1   
     3     1    18 1   
     4     2     4 1   
     5     2    19 1   
     6     2    20 1   
     7     2    21 1   
     8     3     4 1   
     9     3     7 1   
    10     4    13 1   
    11     4    14 1   
    12     5     6 1   
    13     5    22 1   
    14     5    23 1   
    15     6    16 1   
    16     6    24 1   
    17     6    25 1   
    18     7     8 ar  
    19     7    12 ar  
    20     8     9 ar  
    21     8    26 1   
    22     9    10 ar  
    23     9    27 1   
    24    10    11 ar  
    25    10    17 1   
    26    11    12 ar  
    27    11    28 1   
    28    12    29 1   
    29    13    30 1   
    30    13    31 1   
    31    13    32 1   
    32    14    15 2   
    33    16    33 1   
@<TRIPOS>SUBSTRUCTURE
     1 T5N         1 TEMP              0 ****  ****    0 ROOT
