@<TRIPOS>MOLECULE
T5Q
   33    33     1     0     0
SMALL
bcc


@<TRIPOS>ATOM
      1 C1          15.2640    20.4780     0.0540 c3         1 T5Q       0.091800
      2 C2          17.2370    21.1140     1.3530 ca         1 T5Q       0.194100
      3 C3          17.8680    22.1820     1.9980 ca         1 T5Q      -0.264500
      4 C4          19.0740    21.9610     2.6250 ca         1 T5Q       0.200900
      5 C5          19.7020    20.7280     2.6510 ca         1 T5Q      -0.252000
      6 C6          19.0450    19.7040     2.0040 ca         1 T5Q       0.200900
      7 C7          17.8330    19.8540     1.3540 ca         1 T5Q      -0.264500
      8 C9          16.0640    19.8030    -1.0790 c          1 T5Q       0.641100
      9 C8          14.1530    21.3120    -0.5830 c3         1 T5Q      -0.097600
     10 N           16.8600    20.6250    -1.7820 ns         1 T5Q      -0.569900
     11 C           14.6470    19.4640     1.0080 c3         1 T5Q      -0.097600
     12 O           16.0780    21.4310     0.7490 os         1 T5Q      -0.332900
     13 C10         17.7440    20.1640    -2.8260 c3         1 T5Q       0.098000
     14 C11         19.1150    19.7550    -2.3070 c3         1 T5Q       0.004700
     15 F           19.6740    22.9870     3.2390 f          1 T5Q      -0.130900
     16 F1          19.6060    18.4890     2.0000 f          1 T5Q      -0.130900
     17 O1          15.9320    18.6160    -1.3260 o          1 T5Q      -0.588100
     18 S           20.0910    21.1370    -1.6360 sh         1 T5Q      -0.408900
     19 H1          17.4160    23.1660     1.9980 ha         1 T5Q       0.170000
     20 H2          20.6500    20.5780     3.1500 ha         1 T5Q       0.174000
     21 H3          17.4010    18.9860     0.8780 ha         1 T5Q       0.170000
     22 H4          13.5360    21.7710     0.1900 hc         1 T5Q       0.057533
     23 H5          14.5490    22.1000    -1.2230 hc         1 T5Q       0.057533
     24 H6          13.5120    20.6720    -1.1880 hc         1 T5Q       0.057533
     25 H7          16.9230    21.5960    -1.5180 hn         1 T5Q       0.328500
     26 H8          14.1110    19.9960     1.7940 hc         1 T5Q       0.057533
     27 H9          13.9270    18.8440     0.4780 hc         1 T5Q       0.057533
     28 H10         15.3670    18.7990     1.4790 hc         1 T5Q       0.057533
     29 H11         17.8480    20.9600    -3.5630 h1         1 T5Q       0.069700
     30 H12         17.2870    19.3120    -3.3310 h1         1 T5Q       0.069700
     31 H13         19.0320    18.9690    -1.5560 h1         1 T5Q       0.082700
     32 H14         19.7100    19.3590    -3.1310 h1         1 T5Q       0.082700
     33 H15         19.3540    21.3720    -0.5430 hs         1 T5Q       0.212800
@<TRIPOS>BOND
     1     1     8 1   
     2     1     9 1   
     3     1    11 1   
     4     1    12 1   
     5     2     3 ar  
     6     2     7 ar  
     7     2    12 1   
     8     3     4 ar  
     9     3    19 1   
    10     4     5 ar  
    11     4    15 1   
    12     5     6 ar  
    13     5    20 1   
    14     6     7 ar  
    15     6    16 1   
    16     7    21 1   
    17     8    10 1   
    18     8    17 2   
    19     9    22 1   
    20     9    23 1   
    21     9    24 1   
    22    10    13 1   
    23    10    25 1   
    24    11    26 1   
    25    11    27 1   
    26    11    28 1   
    27    13    14 1   
    28    13    29 1   
    29    13    30 1   
    30    14    18 1   
    31    14    31 1   
    32    14    32 1   
    33    18    33 1   
@<TRIPOS>SUBSTRUCTURE
     1 T5Q         1 TEMP              0 ****  ****    0 ROOT
