@<TRIPOS>MOLECULE
T5Q
   33    33     1     0     0
SMALL
No Charge or Current Charge


@<TRIPOS>ATOM
      1 C1          15.2530    20.4950    -0.0080 c3         1 T5Q       0.115000
      2 C2          17.2430    21.2650     1.3560 ca         1 T5Q       0.194100
      3 C3          17.7410    22.3190     2.1330 ca         1 T5Q      -0.246500
      4 C4          18.9340    22.1710     2.8520 ca         1 T5Q       0.236000
      5 C5          19.6460    20.9680     2.8020 ca         1 T5Q      -0.234000
      6 C6          19.1580    19.9150     2.0210 ca         1 T5Q       0.236000
      7 C7          17.9690    20.0560     1.2910 ca         1 T5Q      -0.246500
      8 C9          15.9940    19.8680    -1.2390 c          1 T5Q       0.574100
      9 C8          14.0260    21.2800    -0.5280 c3         1 T5Q      -0.097600
     10 N           17.0060    20.6370    -1.7800 ns         1 T5Q      -0.502900
     11 C           14.7850    19.4440     1.0400 c3         1 T5Q      -0.097600
     12 O           16.0570    21.4960     0.6790 os         1 T5Q      -0.356100
     13 C10         17.8250    20.2530    -2.9370 c3         1 T5Q       0.098000
     14 C11         19.0490    19.4000    -2.5460 c3         1 T5Q       0.052600
     15 F           19.3980    23.1940     3.6000 f          1 T5Q      -0.166000
     16 F1          19.8440    18.7540     1.9610 f          1 T5Q      -0.166000
     17 O1          15.7360    18.7540    -1.6790 o          1 T5Q      -0.588100
     18 S           20.2380    20.2640    -1.4100 sh         1 T5Q      -0.456800
     19 H1          17.1960    23.2570     2.1830 ha         1 T5Q       0.152000
     20 H2          20.5690    20.8540     3.3600 ha         1 T5Q       0.156000
     21 H3          17.6420    19.2180     0.6890 ha         1 T5Q       0.152000
     22 H4          13.4860    21.7570     0.2990 hc         1 T5Q       0.057533
     23 H5          14.3340    22.0630    -1.2310 hc         1 T5Q       0.057533
     24 H6          13.3290    20.6130    -1.0500 hc         1 T5Q       0.057533
     25 H7          17.1620    21.5410    -1.3470 hn         1 T5Q       0.328500
     26 H8          14.3890    19.9390     1.9350 hc         1 T5Q       0.057533
     27 H9          13.9870    18.8180     0.6240 hc         1 T5Q       0.057533
     28 H10         15.5900    18.7710     1.3520 hc         1 T5Q       0.057533
     29 H11         18.1700    21.1660    -3.4420 h1         1 T5Q       0.069700
     30 H12         17.2050    19.6930    -3.6500 h1         1 T5Q       0.069700
     31 H13         18.7050    18.4780    -2.0590 h1         1 T5Q       0.082700
     32 H14         19.5890    19.1140    -3.4580 h1         1 T5Q       0.082700
     33 H15         19.3540    20.4700    -0.4030 hs         1 T5Q       0.212800
@<TRIPOS>BOND
     1     1     8 1   
     2     1     9 1   
     3     1    11 1   
     4     1    12 1   
     5     2     3 ar  
     6     2     7 ar  
     7     2    12 1   
     8     3     4 ar  
     9     3    19 1   
    10     4     5 ar  
    11     4    15 1   
    12     5     6 ar  
    13     5    20 1   
    14     6     7 ar  
    15     6    16 1   
    16     7    21 1   
    17     8    10 1   
    18     8    17 2   
    19     9    22 1   
    20     9    23 1   
    21     9    24 1   
    22    10    13 1   
    23    10    25 1   
    24    11    26 1   
    25    11    27 1   
    26    11    28 1   
    27    13    14 1   
    28    13    29 1   
    29    13    30 1   
    30    14    18 1   
    31    14    31 1   
    32    14    32 1   
    33    18    33 1   
@<TRIPOS>SUBSTRUCTURE
     1 T5Q         1 TEMP              0 ****  ****    0 ROOT
