@<TRIPOS>MOLECULE
T5R
   50    53     1     0     0
SMALL
No Charge or Current Charge


@<TRIPOS>ATOM
      1 C10          5.4340    -4.6820    82.5960 c2         1 T5R       0.278900
      2 C13          6.6350    -5.8280    84.5160 c6         1 T5R      -0.064400
      3 C15          4.0900    -5.5750    84.4590 c          1 T5R       0.600300
      4 C21         -1.8090    -2.0730    83.1730 c3         1 T5R       0.137300
      5 C22         -1.9070    -3.5300    83.6260 ca         1 T5R      -0.078300
      6 C24         -1.6400    -4.5770    82.7240 ca         1 T5R      -0.101000
      7 C26         -2.0640    -6.2310    84.4770 ca         1 T5R      -0.179300
      8 C28         -2.2540    -3.8400    84.9540 ca         1 T5R      -0.101000
      9 C1           2.3990    -2.9820    83.8120 ca         1 T5R      -0.106600
     10 C2           3.0060    -2.5750    85.0170 ca         1 T5R      -0.064000
     11 C3           2.3270    -1.7160    85.8910 ca         1 T5R      -0.071000
     12 C4           1.0300    -1.2720    85.5860 ca         1 T5R      -0.128000
     13 C5           0.3610    -1.7280    84.4250 ca         1 T5R      -0.033000
     14 C6           1.1010    -2.5170    83.5110 ca         1 T5R      -0.078000
     15 C8           4.2510    -4.7280    83.2440 ce         1 T5R      -0.481400
     16 C12          6.6770    -5.4490    83.0200 c6         1 T5R      -0.073200
     17 C14          5.2730    -6.4710    84.8480 c6         1 T5R      -0.181400
     18 C18         -0.6520     0.8710    85.4530 c6         1 T5R      -0.046400
     19 C19         -1.5230    -0.0260    84.5770 c          1 T5R       0.572000
     20 C25         -1.7140    -5.9160    83.1460 ca         1 T5R      -0.054500
     21 C27         -2.3280    -5.1770    85.3780 ca         1 T5R      -0.054500
     22 C29         -2.1280    -7.6900    84.9400 c3         1 T5R       0.343300
     23 F30         -3.0110    -7.8730    85.9490 f          1 T5R      -0.114000
     24 F31         -0.9260    -8.1170    85.3860 f          1 T5R      -0.114000
     25 F32         -2.5010    -8.5290    83.9460 f          1 T5R      -0.114000
     26 N20         -0.9530    -1.2200    84.0510 n          1 T5R      -0.227400
     27 O9           2.9580    -3.6850    81.6120 o          1 T5R      -0.604100
     28 O11          5.6260    -3.9500    81.4940 oh         1 T5R      -0.539100
     29 O16          3.0640    -5.5890    85.1200 o          1 T5R      -0.533100
     30 O23         -2.6770     0.3130    84.3400 o          1 T5R      -0.533000
     31 S17          0.2510    -0.1240    86.6960 ss         1 T5R      -0.123000
     32 H2           7.4560    -6.5160    84.7580 hc         1 T5R       0.056700
     33 H3           6.7800    -4.9290    85.1320 hc         1 T5R       0.056700
     34 H4          -1.4100    -2.0260    82.1530 h1         1 T5R       0.077200
     35 H5          -2.8320    -1.6820    83.1150 h1         1 T5R       0.077200
     36 H6          -1.3690    -4.3580    81.6940 ha         1 T5R       0.124000
     37 H7          -2.4590    -3.0420    85.6650 ha         1 T5R       0.124000
     38 H8           4.0180    -2.8870    85.2630 ha         1 T5R       0.124000
     39 H9           2.8190    -1.3760    86.8000 ha         1 T5R       0.130000
     40 H10          0.6640    -2.8030    82.5580 ha         1 T5R       0.132000
     41 H12          6.7590    -6.3570    82.4080 hc         1 T5R       0.081200
     42 H13          7.5780    -4.8550    82.8160 hc         1 T5R       0.081200
     43 H14          5.1830    -6.7810    85.8970 hc         1 T5R       0.076200
     44 H15          5.1840    -7.3750    84.2300 hc         1 T5R       0.076200
     45 H16          0.0740     1.3750    84.8020 h1         1 T5R       0.105200
     46 H17         -1.2860     1.6110    85.9560 h1         1 T5R       0.105200
     47 H18         -1.4920    -6.7080    82.4330 ha         1 T5R       0.130000
     48 H19         -2.5870    -5.3890    86.4140 ha         1 T5R       0.130000
     49 H20          4.7180    -3.6540    81.2310 ho         1 T5R       0.545000
     50 C7           3.1320    -3.8510    82.8150 c          1 T5R       0.633900
@<TRIPOS>BOND
     1     1    15 2   
     2     1    16 1   
     3     1    28 1   
     4     2    16 1   
     5     2    17 1   
     6     2    32 1   
     7     2    33 1   
     8     3    15 1   
     9     3    17 1   
    10     3    29 2   
    11     4     5 1   
    12     4    26 1   
    13     4    34 1   
    14     4    35 1   
    15     5     6 ar  
    16     5     8 ar  
    17     6    20 ar  
    18     6    36 1   
    19     7    20 ar  
    20     7    21 ar  
    21     7    22 1   
    22     8    21 ar  
    23     8    37 1   
    24     9    10 ar  
    25     9    14 ar  
    26     9    50 1   
    27    10    11 ar  
    28    10    38 1   
    29    11    12 ar  
    30    11    39 1   
    31    12    13 ar  
    32    12    31 1   
    33    13    14 ar  
    34    13    26 1   
    35    14    40 1   
    36    15    50 1   
    37    16    41 1   
    38    16    42 1   
    39    17    43 1   
    40    17    44 1   
    41    18    19 1   
    42    18    31 1   
    43    18    45 1   
    44    18    46 1   
    45    19    26 1   
    46    19    30 2   
    47    20    47 1   
    48    21    48 1   
    49    22    23 1   
    50    22    24 1   
    51    22    25 1   
    52    27    50 2   
    53    28    49 1   
@<TRIPOS>SUBSTRUCTURE
     1 T5R         1 TEMP              0 ****  ****    0 ROOT
