@<TRIPOS>MOLECULE
T5R
   50    53     1     0     0
SMALL
abcg2


@<TRIPOS>ATOM
      1 C10          4.9450    -5.0190    82.5090 c2         1 T5R       0.278900
      2 C13          5.9070    -6.3670    84.3710 c6         1 T5R      -0.064400
      3 C15          3.5930    -5.3200    84.5460 c          1 T5R       0.600300
      4 C21         -1.6630    -2.1310    83.1340 c3         1 T5R       0.137300
      5 C22         -1.4830    -3.5560    83.5950 ca         1 T5R      -0.078300
      6 C24         -1.1130    -4.5430    82.6890 ca         1 T5R      -0.101000
      7 C26         -1.1120    -6.1840    84.4400 ca         1 T5R      -0.179300
      8 C28         -1.6740    -3.9000    84.9340 ca         1 T5R      -0.101000
      9 C1           2.4230    -2.5490    83.9180 ca         1 T5R      -0.106600
     10 C2           2.9050    -2.2130    85.1830 ca         1 T5R      -0.064000
     11 C3           2.1380    -1.4190    86.0150 ca         1 T5R      -0.071000
     12 C4           0.8550    -1.0200    85.6350 ca         1 T5R      -0.128000
     13 C5           0.3460    -1.3950    84.3810 ca         1 T5R      -0.033000
     14 C6           1.1700    -2.1040    83.5120 ca         1 T5R      -0.078000
     15 C8           3.9580    -4.5300    83.3610 ce         1 T5R      -0.481400
     16 C12          5.8400    -6.1550    82.8650 c6         1 T5R      -0.073200
     17 C14          4.4980    -6.4740    84.9330 c6         1 T5R      -0.181400
     18 C18         -1.0360     0.8300    85.4410 c6         1 T5R      -0.046400
     19 C19         -1.7580    -0.1330    84.5300 c          1 T5R       0.572000
     20 C25         -0.9270    -5.8560    83.1030 ca         1 T5R      -0.054500
     21 C27         -1.4900    -5.2050    85.3590 ca         1 T5R      -0.054500
     22 C29         -0.8740    -7.5800    84.9280 c3         1 T5R       0.343300
     23 F30         -1.8970    -8.0390    85.6890 f          1 T5R      -0.114000
     24 F31          0.2350    -7.6640    85.7090 f          1 T5R      -0.114000
     25 F32         -0.7050    -8.4670    83.9280 f          1 T5R      -0.114000
     26 N20         -1.0100    -1.1680    84.0340 n          1 T5R      -0.227400
     27 O9           3.3020    -2.9140    81.7790 o          1 T5R      -0.604100
     28 O11          5.1550    -4.5050    81.3240 oh         1 T5R      -0.539100
     29 O16          2.5610    -5.1270    85.1780 o          1 T5R      -0.533100
     30 O23         -2.9420     0.0200    84.2540 o          1 T5R      -0.533000
     31 S17         -0.1350    -0.0710    86.7320 ss         1 T5R      -0.123000
     32 H2           6.4770    -7.2690    84.5960 hc         1 T5R       0.056700
     33 H3           6.4300    -5.5260    84.8340 hc         1 T5R       0.056700
     34 H4          -1.2880    -2.0090    82.1180 h1         1 T5R       0.077200
     35 H5          -2.7170    -1.8640    83.1250 h1         1 T5R       0.077200
     36 H6          -0.9480    -4.2830    81.6500 ha         1 T5R       0.124000
     37 H7          -1.9510    -3.1380    85.6520 ha         1 T5R       0.124000
     38 H8           3.8810    -2.5500    85.5040 ha         1 T5R       0.124000
     39 H9           2.5220    -1.1090    86.9780 ha         1 T5R       0.130000
     40 H10          0.8220    -2.3660    82.5250 ha         1 T5R       0.132000
     41 H12          5.4440    -7.0500    82.3700 hc         1 T5R       0.081200
     42 H13          6.8200    -5.9630    82.4250 hc         1 T5R       0.081200
     43 H14          4.4900    -6.5400    86.0220 hc         1 T5R       0.076200
     44 H15          4.0140    -7.3840    84.5570 hc         1 T5R       0.076200
     45 H16         -0.3330     1.4430    84.8730 h1         1 T5R       0.105200
     46 H17         -1.7680     1.4680    85.9260 h1         1 T5R       0.105200
     47 H18         -0.6270    -6.6110    82.3910 ha         1 T5R       0.130000
     48 H19         -1.6340    -5.4610    86.4000 ha         1 T5R       0.130000
     49 H20          4.4480    -3.7870    81.1970 ho         1 T5R       0.545000
     50 C7           3.2310    -3.3340    82.9540 c          1 T5R       0.633900
@<TRIPOS>BOND
     1     1    15 2   
     2     1    16 1   
     3     1    28 1   
     4     2    16 1   
     5     2    17 1   
     6     2    32 1   
     7     2    33 1   
     8     3    15 1   
     9     3    17 1   
    10     3    29 2   
    11     4     5 1   
    12     4    26 1   
    13     4    34 1   
    14     4    35 1   
    15     5     6 ar  
    16     5     8 ar  
    17     6    20 ar  
    18     6    36 1   
    19     7    20 ar  
    20     7    21 ar  
    21     7    22 1   
    22     8    21 ar  
    23     8    37 1   
    24     9    10 ar  
    25     9    14 ar  
    26     9    50 1   
    27    10    11 ar  
    28    10    38 1   
    29    11    12 ar  
    30    11    39 1   
    31    12    13 ar  
    32    12    31 1   
    33    13    14 ar  
    34    13    26 1   
    35    14    40 1   
    36    15    50 1   
    37    16    41 1   
    38    16    42 1   
    39    17    43 1   
    40    17    44 1   
    41    18    19 1   
    42    18    31 1   
    43    18    45 1   
    44    18    46 1   
    45    19    26 1   
    46    19    30 2   
    47    20    47 1   
    48    21    48 1   
    49    22    23 1   
    50    22    24 1   
    51    22    25 1   
    52    27    50 2   
    53    28    49 1   
@<TRIPOS>SUBSTRUCTURE
     1 T5R         1 TEMP              0 ****  ****    0 ROOT
