@<TRIPOS>MOLECULE
T5T
   33    33     1     0     0
SMALL
No Charge or Current Charge


@<TRIPOS>ATOM
      1 O1          16.0150    17.7750    -1.3570 o          1 T5T      -0.594100
      2 C7          17.8620    19.8570     1.4580 ca         1 T5T      -0.149500
      3 C2          16.9720    20.9430     1.2780 ca         1 T5T       0.120100
      4 C3          17.2760    22.1840     1.8650 ca         1 T5T      -0.149500
      5 C4          18.4420    22.3470     2.6360 ca         1 T5T      -0.117500
      6 C5          19.3130    21.2630     2.8190 ca         1 T5T       0.139000
      7 C6          19.0270    20.0210     2.2320 ca         1 T5T      -0.117500
      8 C1          15.2010    19.6680    -0.0110 c3         1 T5T       0.115000
      9 C8          13.9140    20.1650    -0.7120 c3         1 T5T      -0.096600
     10 C9          16.1050    18.9650    -1.0830 c          1 T5T       0.573100
     11 C10         18.0040    19.3270    -2.7100 c3         1 T5T       0.099000
     12 C11         19.2810    18.6960    -2.1210 c3         1 T5T       0.053600
     13 N           17.0570    19.7700    -1.6780 ns         1 T5T      -0.502900
     14 C           14.8120    18.7430     1.1800 c3         1 T5T      -0.096600
     15 O           15.8060    20.8770     0.5310 os         1 T5T      -0.361100
     16 F           20.4330    21.4160     3.5580 f          1 T5T      -0.175000
     17 S           20.2920    19.8590    -1.0830 sh         1 T5T      -0.461800
     18 H2          16.6000    23.0240     1.7240 ha         1 T5T       0.133500
     19 H3          18.6710    23.3080     3.0900 ha         1 T5T       0.136000
     20 H4          19.7110    19.1870     2.3740 ha         1 T5T       0.136000
     21 H5          13.2570    20.6850    -0.0050 hc         1 T5T       0.055867
     22 H6          14.1580    20.8590    -1.5260 hc         1 T5T       0.055867
     23 H7          13.3550    19.3250    -1.1420 hc         1 T5T       0.055867
     24 H8          18.2810    20.1920    -3.3270 h1         1 T5T       0.068700
     25 H9          17.5080    18.5980    -3.3660 h1         1 T5T       0.068700
     26 H10         19.0050    17.8280    -1.5070 h1         1 T5T       0.080200
     27 H11         19.9110    18.3350    -2.9440 h1         1 T5T       0.080200
     28 H12         17.0730    20.7390    -1.3790 hn         1 T5T       0.330500
     29 H13         14.2880    19.3120     1.9570 hc         1 T5T       0.055867
     30 H14         14.1410    17.9450     0.8400 hc         1 T5T       0.055867
     31 H15         15.6790    18.2590     1.6380 hc         1 T5T       0.055867
     32 H16         19.3310    20.1120    -0.1600 hs         1 T5T       0.219800
     33 H1          17.6830    18.8880     1.0070 ha         1 T5T       0.133500
@<TRIPOS>BOND
     1     1    10 2   
     2     2     3 ar  
     3     2     7 ar  
     4     2    33 1   
     5     3     4 ar  
     6     3    15 1   
     7     4     5 ar  
     8     4    18 1   
     9     5     6 ar  
    10     5    19 1   
    11     6     7 ar  
    12     6    16 1   
    13     7    20 1   
    14     8     9 1   
    15     8    10 1   
    16     8    14 1   
    17     8    15 1   
    18     9    21 1   
    19     9    22 1   
    20     9    23 1   
    21    10    13 1   
    22    11    12 1   
    23    11    13 1   
    24    11    24 1   
    25    11    25 1   
    26    12    17 1   
    27    12    26 1   
    28    12    27 1   
    29    13    28 1   
    30    14    29 1   
    31    14    30 1   
    32    14    31 1   
    33    17    32 1   
@<TRIPOS>SUBSTRUCTURE
     1 T5T         1 TEMP              0 ****  ****    0 ROOT
