@<TRIPOS>MOLECULE
T5T
   33    33     1     0     0
SMALL
abcg2


@<TRIPOS>ATOM
      1 O1          16.1800    17.7190    -0.9910 o          1 T5T      -0.594100
      2 C7          17.7660    19.6710     1.5550 ca         1 T5T      -0.149500
      3 C2          16.9990    20.8030     1.2920 ca         1 T5T       0.120100
      4 C3          17.4360    22.0420     1.7670 ca         1 T5T      -0.149500
      5 C4          18.6070    22.1520     2.4950 ca         1 T5T      -0.117500
      6 C5          19.3470    21.0120     2.7490 ca         1 T5T       0.139000
      7 C6          18.9430    19.7800     2.2880 ca         1 T5T      -0.117500
      8 C1          15.2210    19.6760     0.0480 c3         1 T5T       0.115000
      9 C8          14.0430    20.2060    -0.7670 c3         1 T5T      -0.096600
     10 C9          16.1680    18.9370    -0.9200 c          1 T5T       0.573100
     11 C10         17.9100    19.2340    -2.6210 c3         1 T5T       0.099000
     12 C11         19.2860    19.0730    -1.9920 c3         1 T5T       0.053600
     13 N           16.9200    19.7340    -1.6960 ns         1 T5T      -0.502900
     14 C           14.6970    18.7630     1.1490 c3         1 T5T      -0.096600
     15 O           15.8500    20.8430     0.5750 os         1 T5T      -0.361100
     16 F           20.4850    21.1110     3.4580 f          1 T5T      -0.175000
     17 S           20.0480    20.6420    -1.4750 sh         1 T5T      -0.461800
     18 H2          16.8490    22.9270     1.5580 ha         1 T5T       0.133500
     19 H3          18.9370    23.1170     2.8580 ha         1 T5T       0.136000
     20 H4          19.5350    18.8960     2.4890 ha         1 T5T       0.136000
     21 H5          13.3270    20.7040    -0.1120 hc         1 T5T       0.055867
     22 H6          14.3610    20.9150    -1.5320 hc         1 T5T       0.055867
     23 H7          13.5300    19.3810    -1.2600 hc         1 T5T       0.055867
     24 H8          17.9650    19.9200    -3.4650 h1         1 T5T       0.068700
     25 H9          17.5800    18.2700    -3.0080 h1         1 T5T       0.068700
     26 H10         19.2540    18.3870    -1.1450 h1         1 T5T       0.080200
     27 H11         19.9710    18.6510    -2.7290 h1         1 T5T       0.080200
     28 H12         16.8630    20.7330    -1.5750 hn         1 T5T       0.330500
     29 H13         14.0540    19.3400     1.8140 hc         1 T5T       0.055867
     30 H14         14.0960    17.9650     0.7180 hc         1 T5T       0.055867
     31 H15         15.4760    18.3000     1.7510 hc         1 T5T       0.055867
     32 H16         19.2730    20.8830    -0.4100 hs         1 T5T       0.219800
     33 H1          17.4870    18.6870     1.2100 ha         1 T5T       0.133500
@<TRIPOS>BOND
     1     1    10 2   
     2     2     3 ar  
     3     2     7 ar  
     4     2    33 1   
     5     3     4 ar  
     6     3    15 1   
     7     4     5 ar  
     8     4    18 1   
     9     5     6 ar  
    10     5    19 1   
    11     6     7 ar  
    12     6    16 1   
    13     7    20 1   
    14     8     9 1   
    15     8    10 1   
    16     8    14 1   
    17     8    15 1   
    18     9    21 1   
    19     9    22 1   
    20     9    23 1   
    21    10    13 1   
    22    11    12 1   
    23    11    13 1   
    24    11    24 1   
    25    11    25 1   
    26    12    17 1   
    27    12    26 1   
    28    12    27 1   
    29    13    28 1   
    30    14    29 1   
    31    14    30 1   
    32    14    31 1   
    33    17    32 1   
@<TRIPOS>SUBSTRUCTURE
     1 T5T         1 TEMP              0 ****  ****    0 ROOT
