@<TRIPOS>MOLECULE
T5U
   34    35     1     0     0
SMALL
No Charge or Current Charge


@<TRIPOS>ATOM
      1 C12        124.6440   125.5510   154.8190 ca         1 T5U      -0.106000
      2 C16        125.3540   127.6680   155.7910 ca         1 T5U      -0.110000
      3 C14        124.0830   127.8250   156.3690 ca         1 T5U      -0.109000
      4 C13        119.5520   122.9620   152.0260 c2         1 T5U       0.777500
      5 C04        122.2950   124.6250   155.1760 c3         1 T5U      -0.014400
      6 C05        121.1150   125.2050   154.3440 c3         1 T5U      -0.068400
      7 C06        120.0590   124.1820   153.8520 c5         1 T5U       0.184500
      8 C07        121.8350   123.9870   156.5170 c3         1 T5U      -0.071400
      9 C08        123.3660   125.7000   155.3950 ca         1 T5U      -0.078300
     10 C09        118.9030   124.8100   153.0240 c5         1 T5U       0.148600
     11 C10        122.9880   123.3900   157.3530 c3         1 T5U      -0.090100
     12 C11        123.0940   126.8460   156.1720 ca         1 T5U      -0.106000
     13 C15        125.6340   126.5300   155.0160 ca         1 T5U      -0.109000
     14 N02        120.5980   123.2660   152.8220 nu         1 T5U      -0.909400
     15 O01        118.4530   123.7220   152.1960 os         1 T5U      -0.482600
     16 H1         124.8750   124.6760   154.2160 ha         1 T5U       0.110000
     17 H2         126.1200   128.4250   155.9440 ha         1 T5U       0.113000
     18 H3         123.8650   128.7050   156.9690 ha         1 T5U       0.113000
     19 H4         122.7360   123.8170   154.5790 hc         1 T5U       0.054700
     20 H5         121.5320   125.7310   153.4770 hc         1 T5U       0.057700
     21 H6         120.6090   125.9710   154.9430 hc         1 T5U       0.057700
     22 H7         119.6410   123.6350   154.7080 h1         1 T5U       0.047700
     23 H8         121.3050   124.7320   157.1220 hc         1 T5U       0.037700
     24 H9         121.1190   123.1820   156.3140 hc         1 T5U       0.037700
     25 H10        119.2670   125.6200   152.3760 h1         1 T5U       0.066200
     26 H11        118.0820   125.1900   153.6440 h1         1 T5U       0.066200
     27 H12        122.5930   122.9030   158.2530 hc         1 T5U       0.036367
     28 H13        123.5390   122.6400   156.7730 hc         1 T5U       0.036367
     29 H14        123.6910   124.1690   157.6710 hc         1 T5U       0.036367
     30 H15        122.1150   126.9820   156.6260 ha         1 T5U       0.110000
     31 H16        126.6170   126.4070   154.5680 ha         1 T5U       0.113000
     32 H17        118.5520   121.7930   151.0460 hn         1 T5U       0.404400
     33 H19        121.1060   122.4310   153.0940 hn         1 T5U       0.499000
     34 N03        119.4970   121.8500   151.4460 n2         1 T5U      -0.853100
@<TRIPOS>BOND
     1     1     9 ar  
     2     1    13 ar  
     3     1    16 1   
     4     2     3 ar  
     5     2    13 ar  
     6     2    17 1   
     7     3    12 ar  
     8     3    18 1   
     9     4    14 1   
    10     4    15 1   
    11     4    34 2   
    12     5     6 1   
    13     5     8 1   
    14     5     9 1   
    15     5    19 1   
    16     6     7 1   
    17     6    20 1   
    18     6    21 1   
    19     7    10 1   
    20     7    14 1   
    21     7    22 1   
    22     8    11 1   
    23     8    23 1   
    24     8    24 1   
    25     9    12 ar  
    26    10    15 1   
    27    10    25 1   
    28    10    26 1   
    29    11    27 1   
    30    11    28 1   
    31    11    29 1   
    32    12    30 1   
    33    13    31 1   
    34    14    33 1   
    35    32    34 1   
@<TRIPOS>SUBSTRUCTURE
     1 T5U         1 TEMP              0 ****  ****    0 ROOT
