@<TRIPOS>MOLECULE
T5U
   34    35     1     0     0
SMALL
abcg2


@<TRIPOS>ATOM
      1 C12        124.5860   125.5140   154.8120 ca         1 T5U      -0.106000
      2 C16        125.3330   127.6350   155.6820 ca         1 T5U      -0.110000
      3 C14        124.0810   127.8200   156.2650 ca         1 T5U      -0.109000
      4 C13        119.6310   122.9050   152.0540 c2         1 T5U       0.777500
      5 C04        122.2520   124.6330   155.2260 c3         1 T5U      -0.014400
      6 C05        121.0660   125.2130   154.4340 c3         1 T5U      -0.068400
      7 C06        120.0530   124.1840   153.9530 c5         1 T5U       0.184500
      8 C07        121.8180   124.0410   156.5780 c3         1 T5U      -0.071400
      9 C08        123.3290   125.6860   155.3910 ca         1 T5U      -0.078300
     10 C09        118.9220   124.8000   153.1250 c5         1 T5U       0.148600
     11 C10        122.9550   123.3560   157.3310 c3         1 T5U      -0.090100
     12 C11        123.0910   126.8550   156.1190 ca         1 T5U      -0.106000
     13 C15        125.5820   126.4760   154.9540 ca         1 T5U      -0.109000
     14 N02        120.5930   123.2470   152.9650 nu         1 T5U      -0.909400
     15 O01        118.5990   123.7880   152.1390 os         1 T5U      -0.482600
     16 H1         124.7880   124.6120   154.2450 ha         1 T5U       0.110000
     17 H2         126.1040   128.3860   155.7960 ha         1 T5U       0.113000
     18 H3         123.8760   128.7190   156.8340 ha         1 T5U       0.113000
     19 H4         122.6910   123.8250   154.6340 hc         1 T5U       0.054700
     20 H5         121.4470   125.7460   153.5590 hc         1 T5U       0.057700
     21 H6         120.5400   125.9450   155.0540 hc         1 T5U       0.057700
     22 H7         119.6320   123.6380   154.8020 h1         1 T5U       0.047700
     23 H8         121.3890   124.8380   157.1930 hc         1 T5U       0.037700
     24 H9         121.0170   123.3180   156.4070 hc         1 T5U       0.037700
     25 H10        119.2530   125.6980   152.6000 h1         1 T5U       0.066200
     26 H11        118.0270   125.0130   153.7040 h1         1 T5U       0.066200
     27 H12        122.5990   122.9260   158.2690 hc         1 T5U       0.036367
     28 H13        123.3850   122.5490   156.7330 hc         1 T5U       0.036367
     29 H14        123.7570   124.0590   157.5660 hc         1 T5U       0.036367
     30 H15        122.1240   127.0140   156.5800 ha         1 T5U       0.110000
     31 H16        126.5520   126.3190   154.4980 ha         1 T5U       0.113000
     32 H17        118.8550   121.9230   150.6450 hn         1 T5U       0.404400
     33 H19        121.2250   122.5180   153.2560 hn         1 T5U       0.499000
     34 N03        119.6820   121.9280   151.2370 n2         1 T5U      -0.853100
@<TRIPOS>BOND
     1     1     9 ar  
     2     1    13 ar  
     3     1    16 1   
     4     2     3 ar  
     5     2    13 ar  
     6     2    17 1   
     7     3    12 ar  
     8     3    18 1   
     9     4    14 1   
    10     4    15 1   
    11     4    34 2   
    12     5     6 1   
    13     5     8 1   
    14     5     9 1   
    15     5    19 1   
    16     6     7 1   
    17     6    20 1   
    18     6    21 1   
    19     7    10 1   
    20     7    14 1   
    21     7    22 1   
    22     8    11 1   
    23     8    23 1   
    24     8    24 1   
    25     9    12 ar  
    26    10    15 1   
    27    10    25 1   
    28    10    26 1   
    29    11    27 1   
    30    11    28 1   
    31    11    29 1   
    32    12    30 1   
    33    13    31 1   
    34    14    33 1   
    35    32    34 1   
@<TRIPOS>SUBSTRUCTURE
     1 T5U         1 TEMP              0 ****  ****    0 ROOT
