@<TRIPOS>MOLECULE
T5V
   12    12     1     0     0
SMALL
bcc


@<TRIPOS>ATOM
      1 N1          -1.1270     1.1860     0.0230 nb         1 T5V      -0.668000
      2 N            2.2990    -0.0340     0.1520 nv         1 T5V      -0.817200
      3 C            0.9340    -0.0170     0.0710 ca         1 T5V      -0.074000
      4 C1           0.1960     1.1710     0.0480 ca         1 T5V       0.365700
      5 C2          -1.7500     0.0170     0.0180 ca         1 T5V       0.594900
      6 C3           0.1660    -1.1850     0.0580 ca         1 T5V       0.365700
      7 N2          -1.1570    -1.1670     0.0330 nb         1 T5V      -0.668000
      8 H1           2.7770     0.7960    -0.1620 hn         1 T5V       0.402800
      9 H            2.7560    -0.8770    -0.1560 hn         1 T5V       0.402800
     10 H2           0.7040     2.1310     0.0490 h4         1 T5V       0.022100
     11 H3          -2.8330     0.0310    -0.0020 h5         1 T5V       0.052100
     12 H4           0.6490    -2.1580     0.0670 h4         1 T5V       0.022100
@<TRIPOS>BOND
     1     1     4 ar  
     2     1     5 ar  
     3     2     3 1   
     4     2     8 1   
     5     2     9 1   
     6     3     4 ar  
     7     3     6 ar  
     8     4    10 1   
     9     5     7 ar  
    10     5    11 1   
    11     6     7 ar  
    12     6    12 1   
@<TRIPOS>SUBSTRUCTURE
     1 T5V         1 TEMP              0 ****  ****    0 ROOT
