@<TRIPOS>MOLECULE
T5V
   12    12     1     0     0
SMALL
No Charge or Current Charge


@<TRIPOS>ATOM
      1 N1          -1.1540     1.2170     0.0310 nb         1 T5V      -0.142000
      2 N            2.3060    -0.0340     0.0180 nv         1 T5V      -1.066000
      3 C            0.9230    -0.0170     0.0260 ca         1 T5V       0.195000
      4 C1           0.1970     1.1950     0.0240 ca         1 T5V       0.037400
      5 C2          -1.7760     0.0180     0.0390 ca         1 T5V       0.068900
      6 C3           0.1660    -1.2100     0.0340 ca         1 T5V       0.037400
      7 N2          -1.1840    -1.1970     0.0410 nb         1 T5V      -0.142000
      8 H1           2.8390     0.8330    -0.0610 hn         1 T5V       0.458000
      9 H            2.8170    -0.9150    -0.0540 hn         1 T5V       0.458000
     10 H2           0.6990     2.1610     0.0180 h4         1 T5V       0.022100
     11 H3          -2.8640     0.0310     0.0450 h5         1 T5V       0.052100
     12 H4           0.6440    -2.1880     0.0360 h4         1 T5V       0.022100
@<TRIPOS>BOND
     1     1     4 ar  
     2     1     5 ar  
     3     2     3 1   
     4     2     8 1   
     5     2     9 1   
     6     3     4 ar  
     7     3     6 ar  
     8     4    10 1   
     9     5     7 ar  
    10     5    11 1   
    11     6     7 ar  
    12     6    12 1   
@<TRIPOS>SUBSTRUCTURE
     1 T5V         1 TEMP              0 ****  ****    0 ROOT
