@<TRIPOS>MOLECULE
T5W
   33    33     1     0     0
SMALL
No Charge or Current Charge


@<TRIPOS>ATOM
      1 C4          18.8510    21.8500     2.6040 ca         1 T5W       0.158500
      2 C5          19.4690    20.5960     2.5090 ca         1 T5W      -0.133000
      3 C6          18.9150    19.6120     1.6780 ca         1 T5W       0.158500
      4 C3          17.6820    22.1170     1.8750 ca         1 T5W      -0.178500
      5 C2          17.1170    21.1350     1.0470 ca         1 T5W       0.160100
      6 C1          15.1060    20.5810    -0.3900 c3         1 T5W       0.115000
      7 C           14.5290    19.5250     0.5980 c3         1 T5W      -0.097100
      8 O1          15.5180    18.8710    -2.1130 o          1 T5W      -0.589100
      9 N           16.9060    20.6720    -2.1150 ns         1 T5W      -0.501900
     10 O           15.9640    21.4860     0.3620 os         1 T5W      -0.358100
     11 C10         17.7440    20.2690    -3.2530 c3         1 T5W       0.097000
     12 C11         18.9480    19.4060    -2.8280 c3         1 T5W       0.052600
     13 C7          17.7490    19.8760     0.9420 ca         1 T5W      -0.178500
     14 C8          13.9570    21.4800    -0.9060 c3         1 T5W      -0.097100
     15 C9          15.8330    19.9510    -1.6280 c          1 T5W       0.572100
     16 S           20.1220    20.2660    -1.6730 sh         1 T5W      -0.456800
     17 Cl          19.5400    23.0920     3.6390 cl         1 T5W      -0.183000
     18 Cl1         19.6900    18.0410     1.5460 cl         1 T5W      -0.183000
     19 H1          20.3730    20.3890     3.0740 ha         1 T5W       0.151000
     20 H2          17.2070    23.0910     1.9550 ha         1 T5W       0.149000
     21 H3          14.1430    20.0120     1.5020 hc         1 T5W       0.057533
     22 H4          13.7010    18.9780     0.1330 hc         1 T5W       0.057533
     23 H5          15.2720    18.7830     0.9040 hc         1 T5W       0.057533
     24 H6          17.1050    21.5510    -1.6480 hn         1 T5W       0.328500
     25 H7          18.1100    21.1730    -3.7570 h1         1 T5W       0.070200
     26 H8          17.1330    19.7110    -3.9750 h1         1 T5W       0.070200
     27 H9          18.5830    18.4920    -2.3400 h1         1 T5W       0.082700
     28 H10         19.5050    19.1060    -3.7250 h1         1 T5W       0.082700
     29 H11         17.3680    19.0920     0.3000 ha         1 T5W       0.149000
     30 H12         13.4310    21.9610    -0.0720 hc         1 T5W       0.057533
     31 H13         14.3440    22.2660    -1.5650 hc         1 T5W       0.057533
     32 H14         13.2270    20.8910    -1.4750 hc         1 T5W       0.057533
     33 H15         19.2290    20.4610    -0.6730 hs         1 T5W       0.213800
@<TRIPOS>BOND
     1     1     2 ar  
     2     1     4 ar  
     3     1    17 1   
     4     2     3 ar  
     5     2    19 1   
     6     3    13 ar  
     7     3    18 1   
     8     4     5 ar  
     9     4    20 1   
    10     5    10 1   
    11     5    13 ar  
    12     6     7 1   
    13     6    10 1   
    14     6    14 1   
    15     6    15 1   
    16     7    21 1   
    17     7    22 1   
    18     7    23 1   
    19     8    15 2   
    20     9    11 1   
    21     9    15 1   
    22     9    24 1   
    23    11    12 1   
    24    11    25 1   
    25    11    26 1   
    26    12    16 1   
    27    12    27 1   
    28    12    28 1   
    29    13    29 1   
    30    14    30 1   
    31    14    31 1   
    32    14    32 1   
    33    16    33 1   
@<TRIPOS>SUBSTRUCTURE
     1 T5W         1 TEMP              0 ****  ****    0 ROOT
