@<TRIPOS>MOLECULE
T5W
   33    33     1     0     0
SMALL
bcc


@<TRIPOS>ATOM
      1 C4          18.9680    21.6660     2.3590 ca         1 T5W       0.066900
      2 C5          19.5220    20.3950     2.3050 ca         1 T5W      -0.151000
      3 C6          18.8160    19.4350     1.6050 ca         1 T5W       0.066900
      4 C3          17.7740    21.9780     1.7430 ca         1 T5W      -0.196500
      5 C2          17.0850    20.9870     1.0400 ca         1 T5W       0.160100
      6 C1          15.1030    20.5550    -0.3280 c3         1 T5W       0.091800
      7 C           14.3910    19.5350     0.5480 c3         1 T5W      -0.097100
      8 O1          15.6910    18.7270    -1.7860 o          1 T5W      -0.589100
      9 N           16.7800    20.6830    -2.0940 ns         1 T5W      -0.568900
     10 O           15.9550    21.4080     0.4480 os         1 T5W      -0.334900
     11 C10         17.6890    20.2040    -3.1110 c3         1 T5W       0.097000
     12 C11         19.0140    19.7170    -2.5420 c3         1 T5W       0.004700
     13 C7          17.6070    19.6960     0.9760 ca         1 T5W      -0.196500
     14 C8          14.0770    21.5020    -0.9480 c3         1 T5W      -0.097100
     15 C9          15.8970    19.8880    -1.4700 c          1 T5W       0.639100
     16 S           20.0360    21.0350    -1.8130 sh         1 T5W      -0.408900
     17 CL          19.8120    22.9050     3.2200 cl         1 T5W      -0.091400
     18 CL1         19.4670    17.8380     1.4900 cl         1 T5W      -0.091400
     19 H1          20.4620    20.1660     2.7850 ha         1 T5W       0.169000
     20 H2          17.3700    22.9810     1.7900 ha         1 T5W       0.167000
     21 H3          13.8730    20.0560     1.3530 hc         1 T5W       0.057533
     22 H4          13.6430    19.0000    -0.0350 hc         1 T5W       0.057533
     23 H5          15.0510    18.7940     0.9950 hc         1 T5W       0.057533
     24 H6          16.8960    21.6340    -1.7820 hn         1 T5W       0.328500
     25 H7          17.8630    21.0100    -3.8240 h1         1 T5W       0.070200
     26 H8          17.2130    19.3880    -3.6540 h1         1 T5W       0.070200
     27 H9          18.8610    18.9270    -1.8070 h1         1 T5W       0.082700
     28 H10         19.6200    19.3020    -3.3480 h1         1 T5W       0.082700
     29 H11         17.1170    18.8900     0.4530 ha         1 T5W       0.167000
     30 H12         13.4770    21.9700    -0.1670 hc         1 T5W       0.057533
     31 H13         14.5510    22.2860    -1.5380 hc         1 T5W       0.057533
     32 H14         13.4050    20.9450    -1.6000 hc         1 T5W       0.057533
     33 H15         19.2860    21.2800    -0.7320 hs         1 T5W       0.213800
@<TRIPOS>BOND
     1     1     2 ar  
     2     1     4 ar  
     3     1    17 1   
     4     2     3 ar  
     5     2    19 1   
     6     3    13 ar  
     7     3    18 1   
     8     4     5 ar  
     9     4    20 1   
    10     5    10 1   
    11     5    13 ar  
    12     6     7 1   
    13     6    10 1   
    14     6    14 1   
    15     6    15 1   
    16     7    21 1   
    17     7    22 1   
    18     7    23 1   
    19     8    15 2   
    20     9    11 1   
    21     9    15 1   
    22     9    24 1   
    23    11    12 1   
    24    11    25 1   
    25    11    26 1   
    26    12    16 1   
    27    12    27 1   
    28    12    28 1   
    29    13    29 1   
    30    14    30 1   
    31    14    31 1   
    32    14    32 1   
    33    16    33 1   
@<TRIPOS>SUBSTRUCTURE
     1 T5W         1 TEMP              0 ****  ****    0 ROOT
