@<TRIPOS>MOLECULE
T5Z
   37    37     1     0     0
SMALL
No Charge or Current Charge


@<TRIPOS>ATOM
      1 C1          15.2900    18.8610    -0.5170 c3         1 T5Z       0.119000
      2 C2          16.4370    20.8110     0.6290 ca         1 T5Z       0.184100
      3 C3          17.5850    20.1060     1.0500 ca         1 T5Z      -0.263000
      4 C4          18.5430    20.7370     1.8750 ca         1 T5Z       0.202100
      5 C5          19.9400    18.7010     2.0210 c3         1 T5Z       0.145900
      6 C6          18.3520    22.0780     2.2610 ca         1 T5Z      -0.090900
      7 C10         16.4620    18.3150    -1.4040 c          1 T5Z       0.575100
      8 C11         18.3400    18.9940    -2.9540 c3         1 T5Z       0.116000
      9 N           17.2010    19.2710    -2.0710 ns         1 T5Z      -0.494900
     10 C           13.9900    18.8170    -1.3550 c3         1 T5Z      -0.097600
     11 O           15.4480    20.2700    -0.1760 os         1 T5Z      -0.368100
     12 C12         19.6920    19.0590    -2.2180 c3         1 T5Z       0.057600
     13 C7          17.2180    22.7840     1.8310 ca         1 T5Z      -0.022000
     14 C8          16.2680    22.1480     1.0180 ca         1 T5Z      -0.180000
     15 C9          15.0780    18.0580     0.8000 c3         1 T5Z      -0.097600
     16 O1          19.6730    20.0810     2.3260 os         1 T5Z      -0.323100
     17 O2          16.7400    17.1240    -1.4850 o          1 T5Z      -0.606100
     18 S           20.0660    20.7190    -1.4710 sh         1 T5Z      -0.456800
     19 Br          19.6350    22.9690     3.3760 br         1 T5Z      -0.083100
     20 H1          17.7480    19.0870     0.7310 ha         1 T5Z       0.130000
     21 H2          20.8790    18.3840     2.4920 h1         1 T5Z       0.045033
     22 H3          19.1360    18.0560     2.3980 h1         1 T5Z       0.045033
     23 H4          20.0360    18.5510     0.9390 h1         1 T5Z       0.045033
     24 H5          18.3380    19.7330    -3.7670 h1         1 T5Z       0.064200
     25 H6          18.2190    18.0020    -3.4090 h1         1 T5Z       0.064200
     26 H7          16.9370    20.2360    -1.9030 hn         1 T5Z       0.339500
     27 H8          13.1410    19.2120    -0.7840 hc         1 T5Z       0.055700
     28 H9          14.0960    19.4170    -2.2670 hc         1 T5Z       0.055700
     29 H10         13.7530    17.7890    -1.6530 hc         1 T5Z       0.055700
     30 H11         19.7020    18.3050    -1.4200 h1         1 T5Z       0.068700
     31 H12         20.4950    18.8100    -2.9240 h1         1 T5Z       0.068700
     32 H13         17.0740    23.8210     2.1280 ha         1 T5Z       0.130000
     33 H14         15.3890    22.6940     0.6880 ha         1 T5Z       0.131000
     34 H15         16.0020    17.9340     1.3720 hc         1 T5Z       0.055700
     35 H16         14.3420    18.5560     1.4430 hc         1 T5Z       0.055700
     36 H17         14.7010    17.0530     0.5780 hc         1 T5Z       0.055700
     37 H18         21.2680    20.3800    -0.9410 hs         1 T5Z       0.215800
@<TRIPOS>BOND
     1     1     7 1   
     2     1    10 1   
     3     1    11 1   
     4     1    15 1   
     5     2     3 ar  
     6     2    11 1   
     7     2    14 ar  
     8     3     4 ar  
     9     3    20 1   
    10     4     6 ar  
    11     4    16 1   
    12     5    16 1   
    13     5    21 1   
    14     5    22 1   
    15     5    23 1   
    16     6    13 ar  
    17     6    19 1   
    18     7     9 1   
    19     7    17 2   
    20     8     9 1   
    21     8    12 1   
    22     8    24 1   
    23     8    25 1   
    24     9    26 1   
    25    10    27 1   
    26    10    28 1   
    27    10    29 1   
    28    12    18 1   
    29    12    30 1   
    30    12    31 1   
    31    13    14 ar  
    32    13    32 1   
    33    14    33 1   
    34    15    34 1   
    35    15    35 1   
    36    15    36 1   
    37    18    37 1   
@<TRIPOS>SUBSTRUCTURE
     1 T5Z         1 TEMP              0 ****  ****    0 ROOT
