@<TRIPOS>MOLECULE
T5Z
   37    37     1     0     0
SMALL
bcc


@<TRIPOS>ATOM
      1 C1          15.4020    18.9860    -0.4980 c3         1 T5Z       0.095800
      2 C2          16.4610    20.8470     0.6850 ca         1 T5Z       0.184100
      3 C3          17.6220    20.1880     1.0800 ca         1 T5Z      -0.281000
      4 C4          18.4800    20.7690     2.0130 ca         1 T5Z       0.202100
      5 C5          19.9690    18.9220     1.9340 c3         1 T5Z       0.122700
      6 C6          18.1590    22.0240     2.5390 ca         1 T5Z      -0.090900
      7 C10         16.5840    18.3870    -1.2840 c          1 T5Z       0.642100
      8 C11         18.2690    18.7990    -3.0070 c3         1 T5Z       0.116000
      9 N           17.2010    19.2250    -2.1320 ns         1 T5Z      -0.561900
     10 C           14.1820    18.9360    -1.4170 c3         1 T5Z      -0.097600
     11 O           15.5970    20.3810    -0.2450 os         1 T5Z      -0.344900
     12 C12         19.6360    18.7500    -2.3430 c3         1 T5Z       0.009700
     13 C7          17.0060    22.6760     2.1390 ca         1 T5Z      -0.040000
     14 C8          16.1520    22.0940     1.2200 ca         1 T5Z      -0.198000
     15 C9          15.1190    18.2090     0.7800 c3         1 T5Z      -0.097600
     16 O1          19.6100    20.1960     2.4380 os         1 T5Z      -0.299900
     17 O2          16.8740    17.2060    -1.1790 o          1 T5Z      -0.606100
     18 S           20.1360    20.4270    -1.8240 sh         1 T5Z      -0.408900
     19 BR          19.3060    22.8250     3.8020 br         1 T5Z      -0.083100
     20 H1          17.8860    19.2310     0.6570 ha         1 T5Z       0.148000
     21 H2          20.9020    18.6530     2.4210 h1         1 T5Z       0.045033
     22 H3          19.2160    18.1650     2.1690 h1         1 T5Z       0.045033
     23 H4          20.1270    18.9480     0.8530 h1         1 T5Z       0.045033
     24 H5          18.2910    19.4780    -3.8600 h1         1 T5Z       0.064200
     25 H6          18.0420    17.8060    -3.3970 h1         1 T5Z       0.064200
     26 H7          16.9110    20.1890    -2.1710 hn         1 T5Z       0.339500
     27 H8          13.3020    19.3070    -0.8910 hc         1 T5Z       0.055700
     28 H9          14.3300    19.5390    -2.3130 hc         1 T5Z       0.055700
     29 H10         13.9860    17.9100    -1.7250 hc         1 T5Z       0.055700
     30 H11         19.6190    18.0850    -1.4800 h1         1 T5Z       0.068700
     31 H12         20.3610    18.3660    -3.0600 h1         1 T5Z       0.068700
     32 H13         16.7610    23.6450     2.5520 ha         1 T5Z       0.148000
     33 H14         15.2490    22.6060     0.9140 ha         1 T5Z       0.149000
     34 H15         15.9740    18.1470     1.4510 hc         1 T5Z       0.055700
     35 H16         14.2960    18.6840     1.3160 hc         1 T5Z       0.055700
     36 H17         14.8150    17.1930     0.5390 hc         1 T5Z       0.055700
     37 H18         21.3800    20.1230    -1.4390 hs         1 T5Z       0.215800
@<TRIPOS>BOND
     1     1     7 1   
     2     1    10 1   
     3     1    11 1   
     4     1    15 1   
     5     2     3 ar  
     6     2    11 1   
     7     2    14 ar  
     8     3     4 ar  
     9     3    20 1   
    10     4     6 ar  
    11     4    16 1   
    12     5    16 1   
    13     5    21 1   
    14     5    22 1   
    15     5    23 1   
    16     6    13 ar  
    17     6    19 1   
    18     7     9 1   
    19     7    17 2   
    20     8     9 1   
    21     8    12 1   
    22     8    24 1   
    23     8    25 1   
    24     9    26 1   
    25    10    27 1   
    26    10    28 1   
    27    10    29 1   
    28    12    18 1   
    29    12    30 1   
    30    12    31 1   
    31    13    14 ar  
    32    13    32 1   
    33    14    33 1   
    34    15    34 1   
    35    15    35 1   
    36    15    36 1   
    37    18    37 1   
@<TRIPOS>SUBSTRUCTURE
     1 T5Z         1 TEMP              0 ****  ****    0 ROOT
