@<TRIPOS>MOLECULE
T60
   47    49     1     0     0
SMALL
No Charge or Current Charge


@<TRIPOS>ATOM
      1 C15        132.4970   144.4720   166.2010 ca         1 T60      -0.105300
      2 C17        130.2520   145.3430   166.6030 ca         1 T60      -0.108500
      3 C20        128.7190   147.0310   168.5500 cc         1 T60      -0.162000
      4 C21        128.2510   148.2620   168.9170 cd         1 T60      -0.226000
      5 C22        129.2050   149.2270   168.5130 cd         1 T60       0.243900
      6 C24        132.1810   146.4820   167.5490 ca         1 T60      -0.108500
      7 C26        134.3150   144.6460   159.6630 ca         1 T60      -0.178000
      8 C01        132.3130   145.6550   153.7920 c3         1 T60      -0.122100
      9 C02        133.4210   144.6250   154.0920 c3         1 T60       0.168600
     10 C06        132.9780   143.8900   157.7600 ca         1 T60      -0.180600
     11 C07        132.1330   143.2070   158.6590 ca         1 T60      -0.022500
     12 C08        132.3780   143.2430   160.0430 ca         1 T60      -0.178000
     13 C09        133.4750   143.9630   160.5590 ca         1 T60       0.030000
     14 C11        133.1930   143.4880   163.0650 c          1 T60       0.659100
     15 C14        133.4170   143.4390   165.5670 c3         1 T60       0.168300
     16 C16        131.1040   144.3870   166.0210 ca         1 T60      -0.086000
     17 C18        130.7830   146.3990   167.3740 ca         1 T60       0.021800
     18 C25        133.0310   145.5250   166.9670 ca         1 T60      -0.086000
     19 C27        134.0750   144.6130   158.2780 ca         1 T60      -0.022500
     20 N10        133.7840   144.0460   161.9440 ns         1 T60      -0.165000
     21 N13        133.8340   143.8510   164.2260 ns         1 T60      -0.524900
     22 N19        129.9340   147.3490   167.9570 na         1 T60       0.224000
     23 N23        130.2510   148.6900   167.9110 nc         1 T60      -0.516800
     24 O03        133.6060   144.5390   155.5200 os         1 T60      -0.450100
     25 O05        131.7530   143.2190   155.8040 o          1 T60      -0.494000
     26 O12        132.2170   142.7520   163.0590 o          1 T60      -0.601100
     27 H1         129.1790   145.2640   166.4450 ha         1 T60       0.132000
     28 H2         128.3300   146.0260   168.6570 h4         1 T60       0.155000
     29 H3         127.3150   148.4690   169.4260 ha         1 T60       0.147000
     30 H4         129.1590   150.3010   168.6410 h4         1 T60       0.039100
     31 H5         132.6100   147.2870   168.1410 ha         1 T60       0.132000
     32 H6         135.1660   145.2090   160.0390 ha         1 T60       0.132000
     33 H7         132.2160   145.7980   152.7100 hc         1 T60       0.047700
     34 H8         131.3420   145.3230   154.1760 hc         1 T60       0.047700
     35 H9         132.5550   146.6250   154.2440 hc         1 T60       0.047700
     36 H10        133.1670   143.6490   153.6580 h1         1 T60       0.057700
     37 H11        134.3500   144.9680   153.6180 h1         1 T60       0.057700
     38 H12        131.2790   142.6430   158.2880 ha         1 T60       0.132500
     39 H13        131.6990   142.7030   160.6950 ha         1 T60       0.132000
     40 H14        132.9110   142.4650   165.5180 h1         1 T60       0.061700
     41 H15        134.3130   143.3120   166.1890 h1         1 T60       0.061700
     42 H16        130.6790   143.5810   165.4260 ha         1 T60       0.115000
     43 H17        134.1060   145.6050   167.1110 ha         1 T60       0.115000
     44 H18        134.7490   145.1540   157.6170 ha         1 T60       0.132500
     45 H19        134.5880   144.6260   162.1430 hn         1 T60       0.146000
     46 H20        134.6320   144.4670   164.1410 hn         1 T60       0.313500
     47 C04        132.6970   143.8400   156.2770 c          1 T60       0.615700
@<TRIPOS>BOND
     1     1    15 1   
     2     1    16 ar  
     3     1    18 ar  
     4     2    16 ar  
     5     2    17 ar  
     6     2    27 1   
     7     3     4 2   
     8     3    22 1   
     9     3    28 1   
    10     4     5 1   
    11     4    29 1   
    12     5    23 2   
    13     5    30 1   
    14     6    17 ar  
    15     6    18 ar  
    16     6    31 1   
    17     7    13 ar  
    18     7    19 ar  
    19     7    32 1   
    20     8     9 1   
    21     8    33 1   
    22     8    34 1   
    23     8    35 1   
    24     9    24 1   
    25     9    36 1   
    26     9    37 1   
    27    10    11 ar  
    28    10    19 ar  
    29    10    47 1   
    30    11    12 ar  
    31    11    38 1   
    32    12    13 ar  
    33    12    39 1   
    34    13    20 1   
    35    14    20 1   
    36    14    21 1   
    37    14    26 2   
    38    15    21 1   
    39    15    40 1   
    40    15    41 1   
    41    16    42 1   
    42    17    22 1   
    43    18    43 1   
    44    19    44 1   
    45    20    45 1   
    46    21    46 1   
    47    22    23 1   
    48    24    47 1   
    49    25    47 2   
@<TRIPOS>SUBSTRUCTURE
     1 T60         1 TEMP              0 ****  ****    0 ROOT
