@<TRIPOS>MOLECULE
T60
   47    49     1     0     0
SMALL
abcg2


@<TRIPOS>ATOM
      1 C15        132.4930   144.3030   166.0470 ca         1 T60      -0.105300
      2 C17        130.6020   144.8780   167.4440 ca         1 T60      -0.108500
      3 C20        129.1300   147.1710   168.6810 cc         1 T60      -0.162000
      4 C21        128.3460   148.2960   168.7050 cd         1 T60      -0.226000
      5 C22        128.5620   148.8950   167.4510 cd         1 T60       0.243900
      6 C24        131.6300   146.5620   166.0700 ca         1 T60      -0.108500
      7 C26        134.5680   144.0640   159.7260 ca         1 T60      -0.178000
      8 C01        132.7130   146.1270   154.0910 c3         1 T60      -0.122100
      9 C02        133.1260   144.7050   154.4020 c3         1 T60       0.168600
     10 C06        132.8570   144.1640   158.0330 ca         1 T60      -0.180600
     11 C07        131.9040   143.9880   159.0320 ca         1 T60      -0.022500
     12 C08        132.2570   143.8510   160.3620 ca         1 T60      -0.178000
     13 C09        133.6070   143.8860   160.7310 ca         1 T60       0.030000
     14 C11        133.3680   143.4440   163.1650 c          1 T60       0.659100
     15 C14        133.4900   143.2660   165.5840 c3         1 T60       0.168300
     16 C16        131.5170   143.9500   166.9740 ca         1 T60      -0.086000
     17 C18        130.6620   146.1920   166.9960 ca         1 T60       0.021800
     18 C25        132.5320   145.6190   165.6030 ca         1 T60      -0.086000
     19 C27        134.2020   144.2020   158.4040 ca         1 T60      -0.022500
     20 N10        134.0730   143.7890   162.0310 ns         1 T60      -0.165000
     21 N13        134.0920   143.5370   164.3050 ns         1 T60      -0.524900
     22 N19        129.7440   147.1490   167.4750 na         1 T60       0.224000
     23 N23        129.4050   148.1960   166.7200 nc         1 T60      -0.516800
     24 O03        133.4140   144.5180   155.7950 os         1 T60      -0.450100
     25 O05        131.2490   144.2500   156.2890 o          1 T60      -0.494000
     26 O12        132.2060   143.0750   163.1550 o          1 T60      -0.601100
     27 H1         129.8340   144.5640   168.1390 ha         1 T60       0.132000
     28 H2         129.3080   146.4160   169.4290 h4         1 T60       0.155000
     29 H3         127.7180   148.6380   169.5090 ha         1 T60       0.147000
     30 H4         128.1290   149.8030   167.0590 h4         1 T60       0.039100
     31 H5         131.6840   147.5830   165.7180 ha         1 T60       0.132000
     32 H6         135.6190   144.0950   159.9890 ha         1 T60       0.132000
     33 H7         132.6060   146.2400   153.0120 hc         1 T60       0.047700
     34 H8         131.7580   146.3860   154.5480 hc         1 T60       0.047700
     35 H9         133.4650   146.8410   154.4270 hc         1 T60       0.047700
     36 H10        132.3680   143.9930   154.0740 h1         1 T60       0.057700
     37 H11        134.0580   144.4590   153.8960 h1         1 T60       0.057700
     38 H12        130.8540   143.9620   158.7730 ha         1 T60       0.132500
     39 H13        131.4840   143.7230   161.1000 ha         1 T60       0.132000
     40 H14        133.0120   142.2850   165.5730 h1         1 T60       0.061700
     41 H15        134.3040   143.2000   166.3080 h1         1 T60       0.061700
     42 H16        131.4520   142.9270   167.3240 ha         1 T60       0.115000
     43 H17        133.2780   145.9270   164.8810 ha         1 T60       0.115000
     44 H18        134.9790   144.3370   157.6640 ha         1 T60       0.132500
     45 H19        135.0650   143.9450   162.1360 hn         1 T60       0.146000
     46 H20        135.0130   143.9430   164.2960 hn         1 T60       0.313500
     47 C04        132.4060   144.3120   156.6320 c          1 T60       0.615700
@<TRIPOS>BOND
     1     1    15 1   
     2     1    16 ar  
     3     1    18 ar  
     4     2    16 ar  
     5     2    17 ar  
     6     2    27 1   
     7     3     4 2   
     8     3    22 1   
     9     3    28 1   
    10     4     5 1   
    11     4    29 1   
    12     5    23 2   
    13     5    30 1   
    14     6    17 ar  
    15     6    18 ar  
    16     6    31 1   
    17     7    13 ar  
    18     7    19 ar  
    19     7    32 1   
    20     8     9 1   
    21     8    33 1   
    22     8    34 1   
    23     8    35 1   
    24     9    24 1   
    25     9    36 1   
    26     9    37 1   
    27    10    11 ar  
    28    10    19 ar  
    29    10    47 1   
    30    11    12 ar  
    31    11    38 1   
    32    12    13 ar  
    33    12    39 1   
    34    13    20 1   
    35    14    20 1   
    36    14    21 1   
    37    14    26 2   
    38    15    21 1   
    39    15    40 1   
    40    15    41 1   
    41    16    42 1   
    42    17    22 1   
    43    18    43 1   
    44    19    44 1   
    45    20    45 1   
    46    21    46 1   
    47    22    23 1   
    48    24    47 1   
    49    25    47 2   
@<TRIPOS>SUBSTRUCTURE
     1 T60         1 TEMP              0 ****  ****    0 ROOT
