@<TRIPOS>MOLECULE
T61
   31    32     1     0     0
SMALL
abcg2


@<TRIPOS>ATOM
      1 N           -4.9650    -0.8760    -0.2790 ns         1 T61      -0.377400
      2 C           -3.7330    -1.1950     0.1700 c          1 T61       0.608700
      3 O           -3.4420    -2.2830     0.6310 o          1 T61      -0.545100
      4 C1          -2.7430    -0.0800     0.0720 ca         1 T61      -0.137600
      5 C10          5.8350    -0.8810    -0.2600 ca         1 T61      -0.086000
      6 C11          5.1830     0.3420    -0.3340 ca         1 T61      -0.118000
      7 C12          3.8100     0.4100    -0.1490 ca         1 T61      -0.070500
      8 C13         -1.4040    -0.4250    -0.0590 ca         1 T61      -0.054000
      9 C2          -3.1120     1.2610     0.1230 ca         1 T61      -0.097000
     10 C3          -2.1470     2.2480     0.0210 ca         1 T61      -0.094000
     11 C4          -0.8160     1.8930    -0.1140 ca         1 T61       0.096000
     12 C5          -0.4220     0.5530    -0.1570 ca         1 T61      -0.025000
     13 C6           1.6070    -0.7260     0.3570 c          1 T61       0.621700
     14 C7           3.0800    -0.7470     0.1180 ca         1 T61      -0.155600
     15 C8           3.7430    -1.9690     0.2140 ca         1 T61      -0.070500
     16 C9           5.1130    -2.0360     0.0140 ca         1 T61      -0.118000
     17 N1           0.9300     0.2400    -0.3210 ns         1 T61      -0.158000
     18 O1          -5.9020    -1.8600    -0.3740 oh         1 T61      -0.430100
     19 O2           1.0660    -1.5230     1.1000 o          1 T61      -0.563100
     20 CL           0.3780     3.1380    -0.2220 cl         1 T61      -0.197000
     21 H1          -5.1140    -0.1050    -0.9150 hn         1 T61       0.332500
     22 H3           5.7430     1.2470    -0.5300 ha         1 T61       0.119000
     23 H4           3.3290     1.3810    -0.1810 ha         1 T61       0.125000
     24 H5          -1.1260    -1.4670    -0.1160 ha         1 T61       0.162000
     25 H6          -4.1430     1.5570     0.2620 ha         1 T61       0.122000
     26 H7          -2.4260     3.2910     0.0680 ha         1 T61       0.134000
     27 H8           3.1860    -2.8700     0.4340 ha         1 T61       0.125000
     28 H9           5.6180    -2.9910     0.0760 ha         1 T61       0.119000
     29 H10          1.4540     0.8310    -0.9480 hn         1 T61       0.166000
     30 H11         -6.4940    -1.7380     0.3790 ho         1 T61       0.450000
     31 H2           6.9060    -0.9340    -0.4070 ha         1 T61       0.117000
@<TRIPOS>BOND
     1     1     2 1   
     2     1    18 1   
     3     1    21 1   
     4     2     3 2   
     5     2     4 1   
     6     4     8 ar  
     7     4     9 ar  
     8     5     6 ar  
     9     5    16 ar  
    10     5    31 1   
    11     6     7 ar  
    12     6    22 1   
    13     7    14 ar  
    14     7    23 1   
    15     8    12 ar  
    16     8    24 1   
    17     9    10 ar  
    18     9    25 1   
    19    10    11 ar  
    20    10    26 1   
    21    11    12 ar  
    22    11    20 1   
    23    12    17 1   
    24    13    14 1   
    25    13    17 1   
    26    13    19 2   
    27    14    15 ar  
    28    15    16 ar  
    29    15    27 1   
    30    16    28 1   
    31    17    29 1   
    32    18    30 1   
@<TRIPOS>SUBSTRUCTURE
     1 T61         1 TEMP              0 ****  ****    0 ROOT
