@<TRIPOS>MOLECULE
T61
   31    32     1     0     0
SMALL
No Charge or Current Charge


@<TRIPOS>ATOM
      1 N           -5.2020    -0.7930     0.0110 ns         1 T61      -0.377400
      2 C           -3.8730    -1.2000     0.0880 c          1 T61       0.608700
      3 O           -3.5750    -2.3800     0.2340 o          1 T61      -0.545100
      4 C1          -2.8180    -0.1100    -0.0010 ca         1 T61      -0.137600
      5 C10          6.0060    -0.7430    -0.1460 ca         1 T61      -0.086000
      6 C11          5.2350     0.4160    -0.3210 ca         1 T61      -0.118000
      7 C12          3.8320     0.3550    -0.2410 ca         1 T61      -0.070500
      8 C13         -1.4490    -0.4700     0.0100 ca         1 T61      -0.054000
      9 C2          -3.1590     1.2610    -0.0930 ca         1 T61      -0.097000
     10 C3          -2.1540     2.2370    -0.1780 ca         1 T61      -0.094000
     11 C4          -0.8020     1.8660    -0.1690 ca         1 T61       0.096000
     12 C5          -0.4310     0.5100    -0.0710 ca         1 T61      -0.025000
     13 C6           1.6650    -0.9870     0.1120 c          1 T61       0.621700
     14 C7           3.1770    -0.8770     0.0170 ca         1 T61      -0.155600
     15 C8           3.9710    -2.0360     0.1910 ca         1 T61      -0.070500
     16 C9           5.3720    -1.9690     0.1100 ca         1 T61      -0.118000
     17 N1           0.9610     0.1980    -0.0680 ns         1 T61      -0.158000
     18 O1          -6.2710    -1.7570    -0.1640 oh         1 T61      -0.430100
     19 O2           1.1210    -2.0620     0.3390 o          1 T61      -0.563100
     20 Cl           0.4250     3.1300    -0.2800 cl         1 T61      -0.197000
     21 H1          -5.4140     0.1630    -0.2670 hn         1 T61       0.332500
     22 H3           5.7250     1.3670    -0.5190 ha         1 T61       0.119000
     23 H4           3.2740     1.2780    -0.3830 ha         1 T61       0.125000
     24 H5          -1.1930    -1.5230     0.0730 ha         1 T61       0.162000
     25 H6          -4.1950     1.5910    -0.0970 ha         1 T61       0.122000
     26 H7          -2.4250     3.2880    -0.2500 ha         1 T61       0.134000
     27 H8           3.5040    -2.9990     0.3900 ha         1 T61       0.125000
     28 H9           5.9680    -2.8690     0.2460 ha         1 T61       0.119000
     29 H10          1.5500     1.0030    -0.2280 hn         1 T61       0.166000
     30 H11         -6.9240    -1.5100     0.5350 ho         1 T61       0.450000
     31 H2           7.0910    -0.6920    -0.2080 ha         1 T61       0.117000
@<TRIPOS>BOND
     1     1     2 1   
     2     1    18 1   
     3     1    21 1   
     4     2     3 2   
     5     2     4 1   
     6     4     8 ar  
     7     4     9 ar  
     8     5     6 ar  
     9     5    16 ar  
    10     5    31 1   
    11     6     7 ar  
    12     6    22 1   
    13     7    14 ar  
    14     7    23 1   
    15     8    12 ar  
    16     8    24 1   
    17     9    10 ar  
    18     9    25 1   
    19    10    11 ar  
    20    10    26 1   
    21    11    12 ar  
    22    11    20 1   
    23    12    17 1   
    24    13    14 1   
    25    13    17 1   
    26    13    19 2   
    27    14    15 ar  
    28    15    16 ar  
    29    15    27 1   
    30    16    28 1   
    31    17    29 1   
    32    18    30 1   
@<TRIPOS>SUBSTRUCTURE
     1 T61         1 TEMP              0 ****  ****    0 ROOT
