@<TRIPOS>MOLECULE
T62
   36    39     1     0     0
SMALL
No Charge or Current Charge


@<TRIPOS>ATOM
      1 N18         -4.4700     2.9600     0.1270 nv         1 T62      -0.990200
      2 C17         -3.5560     2.0030     0.0980 cc         1 T62       0.736200
      3 N16         -2.2790     2.2930     0.1090 nd         1 T62      -0.646100
      4 N19         -3.9650     0.7100     0.0480 nc         1 T62      -0.435300
      5 C20         -2.8090     0.0810     0.0280 cd         1 T62       0.002000
      6 C21         -2.5240    -1.3260    -0.0230 ca         1 T62      -0.077000
      7 C22         -3.5270    -2.3130    -0.0610 ca         1 T62      -0.054000
      8 C23         -3.1630    -3.6680    -0.1100 ca         1 T62      -0.119000
      9 C14         -1.8050    -4.0250    -0.1200 ca         1 T62      -0.087000
     10 C13         -0.8140    -3.0270    -0.0820 ca         1 T62      -0.087000
     11 C12         -1.1550    -1.6610    -0.0320 ca         1 T62       0.285000
     12 N11         -0.0960    -0.7170     0.0050 nc         1 T62      -0.689000
     13 N15         -1.8130     1.0000     0.0630 na         1 T62       0.048900
     14 C10         -0.4500     0.5970     0.0510 cd         1 T62       0.587800
     15 C9           0.6430     1.6460     0.0920 c3         1 T62      -0.081400
     16 C8           2.0800     1.1310     0.0650 ca         1 T62       0.000700
     17 C3           2.7470     0.9420    -1.1600 ca         1 T62      -0.166500
     18 C7           2.7590     0.8460     1.2650 ca         1 T62      -0.166500
     19 C5           4.0810     0.3780     1.2370 ca         1 T62       0.180100
     20 O6           4.7270     0.1050     2.4010 oh         1 T62      -0.532100
     21 C4           4.7400     0.1900     0.0150 ca         1 T62      -0.302000
     22 C2           4.0690     0.4730    -1.1820 ca         1 T62       0.180100
     23 O1           4.7030     0.2930    -2.3710 oh         1 T62      -0.532100
     24 H18A        -4.1330     3.8720    -0.1490 hn         1 T62       0.477500
     25 H18B        -5.3870     2.6970    -0.2090 hn         1 T62       0.477500
     26 H22         -4.5780    -2.0310    -0.0530 ha         1 T62       0.137000
     27 H23         -3.9310    -4.4380    -0.1400 ha         1 T62       0.120000
     28 H14         -1.5190    -5.0740    -0.1580 ha         1 T62       0.119000
     29 H13          0.2340    -3.3130    -0.0900 ha         1 T62       0.136000
     30 H91C         0.4920     2.3330    -0.7480 hc         1 T62       0.085700
     31 H92C         0.4970     2.2580     0.9890 hc         1 T62       0.085700
     32 H3           2.2400     1.1560    -2.0980 ha         1 T62       0.131500
     33 H7           2.2610     0.9860     2.2210 ha         1 T62       0.131500
     34 H6           5.6290    -0.2080     2.1800 ho         1 T62       0.464000
     35 H4           5.7640    -0.1730    -0.0050 ha         1 T62       0.112000
     36 H1           5.6080    -0.0360    -2.1840 ho         1 T62       0.464000
@<TRIPOS>BOND
     1     1     2 1   
     2     1    24 1   
     3     1    25 1   
     4     2     3 2   
     5     2     4 1   
     6     3    13 1   
     7     4     5 2   
     8     5     6 1   
     9     5    13 1   
    10     6     7 ar  
    11     6    11 ar  
    12     7     8 ar  
    13     7    26 1   
    14     8     9 ar  
    15     8    27 1   
    16     9    10 ar  
    17     9    28 1   
    18    10    11 ar  
    19    10    29 1   
    20    11    12 1   
    21    12    14 2   
    22    13    14 1   
    23    14    15 1   
    24    15    16 1   
    25    15    30 1   
    26    15    31 1   
    27    16    17 ar  
    28    16    18 ar  
    29    17    22 ar  
    30    17    32 1   
    31    18    19 ar  
    32    18    33 1   
    33    19    20 1   
    34    19    21 ar  
    35    20    34 1   
    36    21    22 ar  
    37    21    35 1   
    38    22    23 1   
    39    23    36 1   
@<TRIPOS>SUBSTRUCTURE
     1 T62         1 TEMP              0 ****  ****    0 ROOT
