@<TRIPOS>MOLECULE
T62
   36    39     1     0     0
SMALL
abcg2


@<TRIPOS>ATOM
      1 N18         -4.3750     3.0440     0.1560 nv         1 T62      -0.990200
      2 C17         -3.4900     2.0230     0.0740 cc         1 T62       0.736200
      3 N16         -2.1810     2.2030     0.0900 nd         1 T62      -0.646100
      4 N19         -3.8960     0.7280     0.0250 nc         1 T62      -0.435300
      5 C20         -2.7650     0.0640     0.0120 cd         1 T62       0.002000
      6 C21         -2.4610    -1.3250    -0.0340 ca         1 T62      -0.077000
      7 C22         -3.4360    -2.3300    -0.0790 ca         1 T62      -0.054000
      8 C23         -3.0490    -3.6480    -0.1210 ca         1 T62      -0.119000
      9 C14         -1.6860    -3.9830    -0.1170 ca         1 T62      -0.087000
     10 C13         -0.7210    -3.0040    -0.0730 ca         1 T62      -0.087000
     11 C12         -1.0900    -1.6500    -0.0310 ca         1 T62       0.285000
     12 N11         -0.1020    -0.6990     0.0110 nc         1 T62      -0.689000
     13 N15         -1.7230     0.9340     0.0540 na         1 T62       0.048900
     14 C10         -0.4110     0.5470     0.0510 cd         1 T62       0.587800
     15 C9           0.6100     1.6400     0.0930 c3         1 T62      -0.081400
     16 C8           2.0190     1.1210     0.0660 ca         1 T62       0.000700
     17 C3           2.6510     0.9150    -1.1510 ca         1 T62      -0.166500
     18 C7           2.6750     0.8490     1.2580 ca         1 T62      -0.166500
     19 C5           3.9780     0.3610     1.2280 ca         1 T62       0.180100
     20 O6           4.5790     0.1150     2.4090 oh         1 T62      -0.532100
     21 C4           4.6230     0.1460     0.0140 ca         1 T62      -0.302000
     22 C2           3.9540     0.4270    -1.1740 ca         1 T62       0.180100
     23 O1           4.5320     0.2450    -2.3770 oh         1 T62      -0.532100
     24 H18A        -4.0310     3.9600    -0.0790 hn         1 T62       0.477500
     25 H18B        -5.3020     2.8530    -0.1850 hn         1 T62       0.477500
     26 H22         -4.4840    -2.0600    -0.0800 ha         1 T62       0.137000
     27 H23         -3.7950    -4.4310    -0.1560 ha         1 T62       0.120000
     28 H14         -1.3930    -5.0240    -0.1510 ha         1 T62       0.119000
     29 H13          0.3310    -3.2560    -0.0710 ha         1 T62       0.136000
     30 H91C         0.4300     2.3140    -0.7500 hc         1 T62       0.085700
     31 H92C         0.4350     2.2420     0.9900 hc         1 T62       0.085700
     32 H3           2.1430     1.1320    -2.0830 ha         1 T62       0.131500
     33 H7           2.1850     1.0150     2.2100 ha         1 T62       0.131500
     34 H6           5.4760    -0.2070     2.2710 ho         1 T62       0.464000
     35 H4           5.6420    -0.2310    -0.0060 ha         1 T62       0.112000
     36 H1           5.4290    -0.0890    -2.2750 ho         1 T62       0.464000
@<TRIPOS>BOND
     1     1     2 1   
     2     1    24 1   
     3     1    25 1   
     4     2     3 2   
     5     2     4 1   
     6     3    13 1   
     7     4     5 2   
     8     5     6 1   
     9     5    13 1   
    10     6     7 ar  
    11     6    11 ar  
    12     7     8 ar  
    13     7    26 1   
    14     8     9 ar  
    15     8    27 1   
    16     9    10 ar  
    17     9    28 1   
    18    10    11 ar  
    19    10    29 1   
    20    11    12 1   
    21    12    14 2   
    22    13    14 1   
    23    14    15 1   
    24    15    16 1   
    25    15    30 1   
    26    15    31 1   
    27    16    17 ar  
    28    16    18 ar  
    29    17    22 ar  
    30    17    32 1   
    31    18    19 ar  
    32    18    33 1   
    33    19    20 1   
    34    19    21 ar  
    35    20    34 1   
    36    21    22 ar  
    37    21    35 1   
    38    22    23 1   
    39    23    36 1   
@<TRIPOS>SUBSTRUCTURE
     1 T62         1 TEMP              0 ****  ****    0 ROOT
