@<TRIPOS>MOLECULE
T63
   21    22     1     0     0
SMALL
No Charge or Current Charge


@<TRIPOS>ATOM
      1 N1         -13.0120    -6.5740   -18.4440 nb         1 T63      -0.148500
      2 C4         -11.6230    -4.6940   -17.6940 cp         1 T63      -0.146500
      3 C5         -11.2630    -3.3170   -17.7480 ca         1 T63      -0.069000
      4 C6         -10.2320    -2.7980   -16.9470 ca         1 T63      -0.126000
      5 C7          -9.5300    -3.6360   -16.0690 ca         1 T63      -0.093000
      6 C8          -9.8610    -4.9970   -15.9930 ca         1 T63      -0.126000
      7 N          -13.3780    -4.4040   -19.3850 nb         1 T63      -0.148500
      8 C          -14.7240    -6.2610   -20.1010 ca         1 T63       0.022100
      9 O          -15.7310    -6.7620   -20.8850 oh         1 T63      -0.519100
     10 C1         -14.3680    -4.9010   -20.1550 ca         1 T63       0.060900
     11 C2         -12.7310    -5.2540   -18.5540 cp         1 T63       0.161500
     12 C3         -14.0010    -7.0780   -19.2110 ca         1 T63       0.060900
     13 C9         -10.8920    -5.5200   -16.7930 ca         1 T63      -0.069000
     14 H1         -11.7850    -2.6350   -18.4160 ha         1 T63       0.131500
     15 H2          -9.9770    -1.7420   -17.0080 ha         1 T63       0.114500
     16 H3          -8.7320    -3.2330   -15.4490 ha         1 T63       0.113000
     17 H4          -9.3180    -5.6500   -15.3130 ha         1 T63       0.114500
     18 H5         -15.8310    -7.7250   -20.7090 ho         1 T63       0.469000
     19 H6         -14.8780    -4.2020   -20.8170 h4         1 T63       0.032100
     20 H7         -14.2110    -8.1410   -19.1060 h4         1 T63       0.032100
     21 H8         -11.1190    -6.5800   -16.7060 ha         1 T63       0.131500
@<TRIPOS>BOND
     1     1    11 ar  
     2     1    12 ar  
     3     2     3 ar  
     4     2    11 1   
     5     2    13 ar  
     6     3     4 ar  
     7     3    14 1   
     8     4     5 ar  
     9     4    15 1   
    10     5     6 ar  
    11     5    16 1   
    12     6    13 ar  
    13     6    17 1   
    14     7    10 ar  
    15     7    11 ar  
    16     8     9 1   
    17     8    10 ar  
    18     8    12 ar  
    19     9    18 1   
    20    10    19 1   
    21    12    20 1   
    22    13    21 1   
@<TRIPOS>SUBSTRUCTURE
     1 T63         1 TEMP              0 ****  ****    0 ROOT
