@<TRIPOS>MOLECULE
T63
   21    22     1     0     0
SMALL
abcg2


@<TRIPOS>ATOM
      1 N1         -13.0390    -6.5370   -18.3680 nb         1 T63      -0.148500
      2 C4         -11.6200    -4.6970   -17.6900 cp         1 T63      -0.146500
      3 C5         -11.3180    -3.3310   -17.7220 ca         1 T63      -0.069000
      4 C6         -10.3000    -2.8130   -16.9310 ca         1 T63      -0.126000
      5 C7          -9.5650    -3.6500   -16.0960 ca         1 T63      -0.093000
      6 C8          -9.8580    -5.0100   -16.0580 ca         1 T63      -0.126000
      7 N          -13.2970    -4.4350   -19.4170 nb         1 T63      -0.148500
      8 C          -14.6750    -6.2570   -20.0680 ca         1 T63       0.022100
      9 O          -15.6680    -6.7100   -20.8670 oh         1 T63      -0.519100
     10 C1         -14.2690    -4.9290   -20.1720 ca         1 T63       0.060900
     11 C2         -12.7060    -5.2510   -18.5330 cp         1 T63       0.161500
     12 C3         -14.0100    -7.0340   -19.1250 ca         1 T63       0.060900
     13 C9         -10.8760    -5.5290   -16.8460 ca         1 T63      -0.069000
     14 H1         -11.8870    -2.6790   -18.3690 ha         1 T63       0.131500
     15 H2         -10.0810    -1.7530   -16.9670 ha         1 T63       0.114500
     16 H3          -8.7720    -3.2450   -15.4800 ha         1 T63       0.113000
     17 H4          -9.2900    -5.6690   -15.4130 ha         1 T63       0.114500
     18 H5         -15.8450    -7.6460   -20.6910 ho         1 T63       0.469000
     19 H6         -14.7460    -4.2660   -20.8870 h4         1 T63       0.032100
     20 H7         -14.2740    -8.0790   -18.9850 h4         1 T63       0.032100
     21 H8         -11.1010    -6.5860   -16.8160 ha         1 T63       0.131500
@<TRIPOS>BOND
     1     1    11 ar  
     2     1    12 ar  
     3     2     3 ar  
     4     2    11 1   
     5     2    13 ar  
     6     3     4 ar  
     7     3    14 1   
     8     4     5 ar  
     9     4    15 1   
    10     5     6 ar  
    11     5    16 1   
    12     6    13 ar  
    13     6    17 1   
    14     7    10 ar  
    15     7    11 ar  
    16     8     9 1   
    17     8    10 ar  
    18     8    12 ar  
    19     9    18 1   
    20    10    19 1   
    21    12    20 1   
    22    13    21 1   
@<TRIPOS>SUBSTRUCTURE
     1 T63         1 TEMP              0 ****  ****    0 ROOT
