@<TRIPOS>MOLECULE
T65
   52    51     1     0     0
SMALL
No Charge or Current Charge


@<TRIPOS>ATOM
      1 O2          -9.3910     0.9740     0.3070 o          1 T65      -0.710500
      2 C17         -8.5270     0.2430     0.7730 c          1 T65       0.734000
      3 O1          -7.9830     0.4410     1.8510 o          1 T65      -0.710500
      4 C16         -8.0850    -0.9970    -0.0570 c3         1 T65      -0.070200
      5 N           -6.9250    -0.7430    -0.9420 n2         1 T65      -0.455900
      6 C15         -5.7200    -0.6870    -0.4510 ce         1 T65       0.278200
      7 C14         -4.5260    -0.3780    -1.3290 c          1 T65       0.483800
      8 O           -4.6090    -0.1550    -2.5360 o          1 T65      -0.513100
      9 C13         -3.1570    -0.3430    -0.6290 c3         1 T65      -0.181400
     10 C12         -2.7820     1.0940    -0.2050 c3         1 T65      -0.034200
     11 C11         -1.4390     1.1430     0.4910 c2         1 T65      -0.204200
     12 C10         -0.3420     1.7520     0.0140 c2         1 T65      -0.239200
     13 C9           1.0010     1.8070     0.7120 c3         1 T65      -0.036200
     14 C8           2.0940     1.0510    -0.0720 c3         1 T65      -0.072400
     15 C7           3.4740     1.0880     0.6220 c3         1 T65      -0.075400
     16 C            4.5660     0.3300    -0.1650 c3         1 T65      -0.074400
     17 C1           5.9450     0.3670     0.5280 c3         1 T65      -0.074400
     18 C2           7.0370    -0.3910    -0.2590 c3         1 T65      -0.074400
     19 C3           8.4170    -0.3540     0.4350 c3         1 T65      -0.074400
     20 C4           9.5090    -1.1120    -0.3520 c3         1 T65      -0.075400
     21 C5          10.8890    -1.0750     0.3410 c3         1 T65      -0.075400
     22 C6          11.9780    -1.8310    -0.4440 c3         1 T65      -0.088100
     23 H2          -7.8620    -1.8090     0.6480 h1         1 T65       0.034200
     24 H3          -8.9470    -1.3220    -0.6540 h1         1 T65       0.034200
     25 H4          -5.5380    -0.8640     0.6120 h4         1 T65      -0.042200
     26 H5          -3.1980    -0.9520     0.2810 hc         1 T65       0.058700
     27 H6          -2.3870    -0.7220    -1.3110 hc         1 T65       0.058700
     28 H7          -2.7750     1.7390    -1.0940 hc         1 T65       0.056200
     29 H8          -3.5590     1.4930     0.4610 hc         1 T65       0.056200
     30 H9          -1.4120     0.6320     1.4560 ha         1 T65       0.162000
     31 H10         -0.3690     2.2660    -0.9490 ha         1 T65       0.166000
     32 H11          1.3070     2.8520     0.8420 hc         1 T65       0.038700
     33 H12          0.9240     1.3770     1.7190 hc         1 T65       0.038700
     34 H13          1.7830     0.0070    -0.2020 hc         1 T65       0.040700
     35 H14          2.1820     1.4870    -1.0750 hc         1 T65       0.040700
     36 H15          3.7830     2.1320     0.7520 hc         1 T65       0.035200
     37 H16          3.3850     0.6520     1.6240 hc         1 T65       0.035200
     38 H17          4.2560    -0.7140    -0.2960 hc         1 T65       0.037700
     39 H18          4.6550     0.7660    -1.1680 hc         1 T65       0.037700
     40 H19          6.2550     1.4110     0.6590 hc         1 T65       0.035700
     41 H20          5.8560    -0.0690     1.5310 hc         1 T65       0.035700
     42 H21          6.7280    -1.4350    -0.3900 hc         1 T65       0.037200
     43 H22          7.1270     0.0450    -1.2620 hc         1 T65       0.037200
     44 H23          8.7270     0.6900     0.5650 hc         1 T65       0.036200
     45 H24          8.3280    -0.7900     1.4370 hc         1 T65       0.036200
     46 H25          9.2000    -2.1560    -0.4830 hc         1 T65       0.036700
     47 H26          9.5980    -0.6760    -1.3550 hc         1 T65       0.036700
     48 H27         11.2030    -0.0320     0.4720 hc         1 T65       0.036200
     49 H28         10.8040    -1.5120     1.3440 hc         1 T65       0.036200
     50 H29         11.7100    -2.8880    -0.5610 hc         1 T65       0.030367
     51 H30         12.1120    -1.3940    -1.4410 hc         1 T65       0.030367
     52 H31         12.9370    -1.7770     0.0860 hc         1 T65       0.030367
@<TRIPOS>BOND
     1     1     2 1   
     2     2     3 1   
     3     2     4 1   
     4     4     5 1   
     5     4    23 1   
     6     4    24 1   
     7     5     6 2   
     8     6     7 1   
     9     6    25 1   
    10     7     8 2   
    11     7     9 1   
    12     9    10 1   
    13     9    26 1   
    14     9    27 1   
    15    10    11 1   
    16    10    28 1   
    17    10    29 1   
    18    11    12 2   
    19    11    30 1   
    20    12    13 1   
    21    12    31 1   
    22    13    14 1   
    23    13    32 1   
    24    13    33 1   
    25    14    15 1   
    26    14    34 1   
    27    14    35 1   
    28    15    16 1   
    29    15    36 1   
    30    15    37 1   
    31    16    17 1   
    32    16    38 1   
    33    16    39 1   
    34    17    18 1   
    35    17    40 1   
    36    17    41 1   
    37    18    19 1   
    38    18    42 1   
    39    18    43 1   
    40    19    20 1   
    41    19    44 1   
    42    19    45 1   
    43    20    21 1   
    44    20    46 1   
    45    20    47 1   
    46    21    22 1   
    47    21    48 1   
    48    21    49 1   
    49    22    50 1   
    50    22    51 1   
    51    22    52 1   
@<TRIPOS>SUBSTRUCTURE
     1 T65         1 TEMP              0 ****  ****    0 ROOT
