@<TRIPOS>MOLECULE
T65
   52    51     1     0     0
SMALL
abcg2


@<TRIPOS>ATOM
      1 O2          -8.9620    -3.0670     0.8380 o          1 T65      -0.710500
      2 C17         -8.2840    -2.0340     0.6920 c          1 T65       0.734000
      3 O1          -8.4300    -0.9380     1.2540 o          1 T65      -0.710500
      4 C16         -7.0890    -2.1810    -0.2920 c3         1 T65      -0.070200
      5 N           -6.5030    -0.9140    -0.6260 n2         1 T65      -0.455900
      6 C15         -5.3720    -0.6380    -0.1470 ce         1 T65       0.278200
      7 C14         -4.7270     0.6840    -0.4440 c          1 T65       0.483800
      8 O           -5.3030     1.5470    -1.0640 o          1 T65      -0.513100
      9 C13         -3.3290     0.8270     0.0800 c3         1 T65      -0.181400
     10 C12         -2.6720     2.1730    -0.1980 c3         1 T65      -0.034200
     11 C11         -1.2960     2.2350     0.3860 c2         1 T65      -0.204200
     12 C10         -0.1810     2.4640    -0.3020 c2         1 T65      -0.239200
     13 C9           1.1920     2.5110     0.2890 c3         1 T65      -0.036200
     14 C8           2.1560     1.5250    -0.3700 c3         1 T65      -0.072400
     15 C7           3.5180     1.4890     0.3120 c3         1 T65      -0.075400
     16 C            4.5160     0.5710    -0.3820 c3         1 T65      -0.074400
     17 C1           5.8320     0.4350     0.3740 c3         1 T65      -0.074400
     18 C2           6.8530    -0.4400    -0.3420 c3         1 T65      -0.074400
     19 C3           8.1390    -0.6340     0.4530 c3         1 T65      -0.074400
     20 C4           9.1750    -1.4820    -0.2730 c3         1 T65      -0.075400
     21 C5          10.4500    -1.7000     0.5330 c3         1 T65      -0.075400
     22 C6          11.4810    -2.5390    -0.2090 c3         1 T65      -0.088100
     23 H2          -6.3660    -2.8740     0.1610 h1         1 T65       0.034200
     24 H3          -7.4540    -2.6470    -1.2110 h1         1 T65       0.034200
     25 H4          -4.8050    -1.3300     0.4860 h4         1 T65      -0.042200
     26 H5          -3.3520     0.6180     1.1560 hc         1 T65       0.058700
     27 H6          -2.7340     0.0100    -0.3460 hc         1 T65       0.058700
     28 H7          -2.6310     2.3560    -1.2740 hc         1 T65       0.056200
     29 H8          -3.2900     2.9660     0.2350 hc         1 T65       0.056200
     30 H9          -1.2240     2.0750     1.4610 ha         1 T65       0.162000
     31 H10         -0.2510     2.6210    -1.3780 ha         1 T65       0.166000
     32 H11          1.6020     3.5220     0.1840 hc         1 T65       0.038700
     33 H12          1.1330     2.3120     1.3640 hc         1 T65       0.038700
     34 H13          1.7180     0.5220    -0.3560 hc         1 T65       0.040700
     35 H14          2.2790     1.7890    -1.4250 hc         1 T65       0.040700
     36 H15          3.9300     2.5030     0.3630 hc         1 T65       0.035200
     37 H16          3.3870     1.1650     1.3510 hc         1 T65       0.035200
     38 H17          4.0700    -0.4210    -0.5100 hc         1 T65       0.037700
     39 H18          4.7110     0.9470    -1.3930 hc         1 T65       0.037700
     40 H19          6.2630     1.4280     0.5440 hc         1 T65       0.035700
     41 H20          5.6320     0.0190     1.3680 hc         1 T65       0.035700
     42 H21          6.4090    -1.4190    -0.5540 hc         1 T65       0.037200
     43 H22          7.0890     0.0020    -1.3160 hc         1 T65       0.037200
     44 H23          8.5720     0.3440     0.6900 hc         1 T65       0.036200
     45 H24          7.9010    -1.0990     1.4160 hc         1 T65       0.036200
     46 H25          8.7370    -2.4540    -0.5280 hc         1 T65       0.036700
     47 H26          9.4280    -1.0060    -1.2280 hc         1 T65       0.036700
     48 H27         10.8840    -0.7290     0.7930 hc         1 T65       0.036200
     49 H28         10.1970    -2.1820     1.4830 hc         1 T65       0.036200
     50 H29         11.0830    -3.5270    -0.4500 hc         1 T65       0.030367
     51 H30         11.7690    -2.0640    -1.1480 hc         1 T65       0.030367
     52 H31         12.3860    -2.6820     0.3820 hc         1 T65       0.030367
@<TRIPOS>BOND
     1     1     2 1   
     2     2     3 1   
     3     2     4 1   
     4     4     5 1   
     5     4    23 1   
     6     4    24 1   
     7     5     6 2   
     8     6     7 1   
     9     6    25 1   
    10     7     8 2   
    11     7     9 1   
    12     9    10 1   
    13     9    26 1   
    14     9    27 1   
    15    10    11 1   
    16    10    28 1   
    17    10    29 1   
    18    11    12 2   
    19    11    30 1   
    20    12    13 1   
    21    12    31 1   
    22    13    14 1   
    23    13    32 1   
    24    13    33 1   
    25    14    15 1   
    26    14    34 1   
    27    14    35 1   
    28    15    16 1   
    29    15    36 1   
    30    15    37 1   
    31    16    17 1   
    32    16    38 1   
    33    16    39 1   
    34    17    18 1   
    35    17    40 1   
    36    17    41 1   
    37    18    19 1   
    38    18    42 1   
    39    18    43 1   
    40    19    20 1   
    41    19    44 1   
    42    19    45 1   
    43    20    21 1   
    44    20    46 1   
    45    20    47 1   
    46    21    22 1   
    47    21    48 1   
    48    21    49 1   
    49    22    50 1   
    50    22    51 1   
    51    22    52 1   
@<TRIPOS>SUBSTRUCTURE
     1 T65         1 TEMP              0 ****  ****    0 ROOT
