@<TRIPOS>MOLECULE
T66
   49    49     1     0     0
SMALL
abcg2


@<TRIPOS>ATOM
      1 C8           2.7610    -1.5690    -0.4110 c3         1 T66       0.002000
      2 C7           2.3660    -0.1080    -0.6470 c          1 T66       0.596100
      3 O7           2.6630     0.7310     0.1900 o          1 T66      -0.575100
      4 C5           1.1610     1.5160    -1.9480 c3         1 T66      -0.027300
      5 C            0.2370     1.9110    -0.7620 c          1 T66       0.729000
      6 O1          -0.3740     0.9850    -0.2030 o          1 T66      -0.718000
      7 OXT          0.1360     3.1300    -0.5220 o          1 T66      -0.718000
      8 N4           1.7080     0.1730    -1.7790 n          1 T66      -0.363800
      9 C3           1.3150    -0.8440    -2.7380 c3         1 T66       0.073000
     10 C2          -0.0670    -1.4500    -2.4780 c3         1 T66       0.110800
     11 N1          -0.4650    -2.4400    -3.4620 n8         1 T66      -0.998200
     12 N2           3.4130    -1.6990     0.8690 n          1 T66      -0.278000
     13 C6           2.6580    -1.8830     1.9940 cc         1 T66       0.027600
     14 C9           4.7480    -1.3920     0.9490 c          1 T66       0.624000
     15 O2           5.4330    -1.1470    -0.0240 o          1 T66      -0.566000
     16 N3           5.2550    -1.4070     2.2220 ns         1 T66      -0.464500
     17 C4           4.5730    -1.6250     3.4050 c          1 T66       0.595200
     18 O4           5.1590    -1.5960     4.4730 o          1 T66      -0.559000
     19 C1           3.1550    -1.8760     3.2440 cd         1 T66      -0.286400
     20 C5M          2.3180    -2.1080     4.4590 c3         1 T66      -0.010900
     21 CB           2.2270     2.5470    -2.3060 c3         1 T66      -0.071400
     22 CG           3.0000     2.2150    -3.5760 c3         1 T66      -0.071400
     23 CD           4.0220     3.2870    -3.9350 c3         1 T66      -0.114400
     24 CE           4.7580     3.0010    -5.2400 c3         1 T66       0.135800
     25 NZ           5.7450     3.9940    -5.6390 n8         1 T66      -0.997200
     26 H8'1         1.8830    -2.2160    -0.4140 h1         1 T66       0.073200
     27 H8'2         3.4230    -1.9370    -1.1940 h1         1 T66       0.073200
     28 H5'1         0.4890     1.4430    -2.8130 h1         1 T66       0.023700
     29 H3'1         2.0650    -1.6370    -2.7790 h1         1 T66       0.026700
     30 H3'2         1.3220    -0.3880    -3.7310 h1         1 T66       0.026700
     31 H2'1        -0.8130    -0.6550    -2.4540 h1         1 T66       0.080200
     32 H2'2        -0.0880    -1.9090    -1.4870 h1         1 T66       0.080200
     33 H1'1         0.2200    -3.1850    -3.5050 hn         1 T66       0.379500
     34 H1'2        -0.4770    -2.0210    -4.3840 hn         1 T66       0.379500
     35 H6           1.6070    -2.0620     1.8130 h4         1 T66       0.216000
     36 HN3          6.2460    -1.2130     2.2970 hn         1 T66       0.332500
     37 HM51         2.6500    -2.9910     5.0070 hc         1 T66       0.040033
     38 HM52         1.2740    -2.2530     4.1910 hc         1 T66       0.040033
     39 HM53         2.3740    -1.2620     5.1460 hc         1 T66       0.040033
     40 HB1          1.7250     3.5070    -2.4370 hc         1 T66       0.063200
     41 HB2          2.9230     2.6750    -1.4740 hc         1 T66       0.063200
     42 HG1          2.2970     2.0930    -4.4090 hc         1 T66       0.025700
     43 HG2          3.5130     1.2540    -3.4670 hc         1 T66       0.025700
     44 HD1          4.7530     3.3820    -3.1240 hc         1 T66       0.036700
     45 HD2          3.5220     4.2590    -4.0130 hc         1 T66       0.036700
     46 HE1          5.2590     2.0300    -5.1690 h1         1 T66       0.045700
     47 HE2          4.0290     2.9030    -6.0500 h1         1 T66       0.045700
     48 HZ1          5.3000     4.9020    -5.6900 hn         1 T66       0.385000
     49 HZ2          6.4470     4.0800    -4.9130 hn         1 T66       0.385000
@<TRIPOS>BOND
     1     1     2 1   
     2     1    12 1   
     3     1    26 1   
     4     1    27 1   
     5     2     3 2   
     6     2     8 1   
     7     4     5 1   
     8     4     8 1   
     9     4    21 1   
    10     4    28 1   
    11     5     6 1   
    12     5     7 1   
    13     8     9 1   
    14     9    10 1   
    15     9    29 1   
    16     9    30 1   
    17    10    11 1   
    18    10    31 1   
    19    10    32 1   
    20    11    33 1   
    21    11    34 1   
    22    12    13 1   
    23    12    14 1   
    24    13    19 2   
    25    13    35 1   
    26    14    15 2   
    27    14    16 1   
    28    16    17 1   
    29    16    36 1   
    30    17    18 2   
    31    17    19 1   
    32    19    20 1   
    33    20    37 1   
    34    20    38 1   
    35    20    39 1   
    36    21    22 1   
    37    21    40 1   
    38    21    41 1   
    39    22    23 1   
    40    22    42 1   
    41    22    43 1   
    42    23    24 1   
    43    23    44 1   
    44    23    45 1   
    45    24    25 1   
    46    24    46 1   
    47    24    47 1   
    48    25    48 1   
    49    25    49 1   
@<TRIPOS>SUBSTRUCTURE
     1 T66         1 TEMP              0 ****  ****    0 ROOT
