@<TRIPOS>MOLECULE
T66
   49    49     1     0     0
SMALL
bcc


@<TRIPOS>ATOM
      1 N8           2.7610    -1.5690    -0.4110 c3         1 T66      -0.212700
      2 N7           2.3660    -0.1080    -0.6470 c          1 T66       0.458200
      3 N7           2.6630     0.7310     0.1900 o          1 T66      -0.336000
      4 N5           1.1610     1.5160    -1.9480 c3         1 T66      -0.202700
      5 N            0.2370     1.9110    -0.7620 c          1 T66       0.477500
      6 N1          -0.3740     0.9850    -0.2030 o          1 T66      -0.558000
      7 NXT          0.1360     3.1300    -0.5220 o          1 T66      -0.558000
      8 N4           1.7080     0.1730    -1.7790 n3         1 T66      -0.261300
      9 N3           1.3150    -0.8440    -2.7380 c3         1 T66      -0.073200
     10 N2          -0.0670    -1.4500    -2.4780 c3         1 T66      -0.126000
     11 N1          -0.4650    -2.4400    -3.4620 n8         1 T66      -0.320000
     12 N2           3.4130    -1.6990     0.8690 na         1 T66      -0.273200
     13 N6           2.6580    -1.8830     1.9940 cc         1 T66       0.107700
     14 N9           4.7480    -1.3920     0.9490 c          1 T66       0.489400
     15 N2           5.4330    -1.1470    -0.0240 o          1 T66      -0.366000
     16 N3           5.2550    -1.4070     2.2220 na         1 T66      -0.419900
     17 N4           4.5730    -1.6250     3.4050 c          1 T66       0.441400
     18 N4           5.1590    -1.5960     4.4730 o          1 T66      -0.359000
     19 N1           3.1550    -1.8760     3.2440 cd         1 T66      -0.265500
     20 N5M          2.3180    -2.1080     4.4590 c3         1 T66      -0.163200
     21 NB           2.2270     2.5470    -2.3060 c3         1 T66      -0.150000
     22 NG           3.0000     2.2150    -3.5760 c3         1 T66      -0.150000
     23 ND           4.0220     3.2870    -3.9350 c3         1 T66      -0.193000
     24 NE           4.7580     3.0010    -5.2400 c3         1 T66      -0.101000
     25 NZ           5.7450     3.9940    -5.6390 n8         1 T66      -0.319000
     26 N8'1         1.8830    -2.2160    -0.4140 hn         1 T66       0.112500
     27 N8'2         3.4230    -1.9370    -1.1940 hn         1 T66       0.112500
     28 N5'1         0.4890     1.4430    -2.8130 hn         1 T66       0.063000
     29 N3'1         2.0650    -1.6370    -2.7790 hn         1 T66       0.066000
     30 N3'2         1.3220    -0.3880    -3.7310 hn         1 T66       0.066000
     31 N2'1        -0.8130    -0.6550    -2.4540 hn         1 T66       0.119500
     32 N2'2        -0.0880    -1.9090    -1.4870 hn         1 T66       0.119500
     33 N1'1         0.2200    -3.1850    -3.5050 hn         1 T66       0.119500
     34 N1'2        -0.4770    -2.0210    -4.3840 hn         1 T66       0.119500
     35 N6           1.6070    -2.0620     1.8130 hn         1 T66       0.166000
     36 NN3          6.2460    -1.2130     2.2970 hn         1 T66       0.222500
     37 NM51         2.6500    -2.9910     5.0070 hn         1 T66       0.079333
     38 NM52         1.2740    -2.2530     4.1910 hn         1 T66       0.079333
     39 NM53         2.3740    -1.2620     5.1460 hn         1 T66       0.079333
     40 NB1          1.7250     3.5070    -2.4370 hn         1 T66       0.102500
     41 NB2          2.9230     2.6750    -1.4740 hn         1 T66       0.102500
     42 NG1          2.2970     2.0930    -4.4090 hn         1 T66       0.065000
     43 NG2          3.5130     1.2540    -3.4670 hn         1 T66       0.065000
     44 ND1          4.7530     3.3820    -3.1240 hn         1 T66       0.076000
     45 ND2          3.5220     4.2590    -4.0130 hn         1 T66       0.076000
     46 NE1          5.2590     2.0300    -5.1690 hn         1 T66       0.085000
     47 NE2          4.0290     2.9030    -6.0500 hn         1 T66       0.085000
     48 NZ1          5.3000     4.9020    -5.6900 hn         1 T66       0.125000
     49 NZ2          6.4470     4.0800    -4.9130 hn         1 T66       0.125000
@<TRIPOS>BOND
     1     1     2 1   
     2     1    12 1   
     3     1    26 1   
     4     1    27 1   
     5     2     3 2   
     6     2     8 1   
     7     4     5 1   
     8     4     8 1   
     9     4    21 1   
    10     4    28 1   
    11     5     6 1   
    12     5     7 1   
    13     8     9 1   
    14     9    10 1   
    15     9    29 1   
    16     9    30 1   
    17    10    11 1   
    18    10    31 1   
    19    10    32 1   
    20    11    33 1   
    21    11    34 1   
    22    12    13 1   
    23    12    14 1   
    24    13    19 2   
    25    13    35 1   
    26    14    15 2   
    27    14    16 1   
    28    16    17 1   
    29    16    36 1   
    30    17    18 2   
    31    17    19 1   
    32    19    20 1   
    33    20    37 1   
    34    20    38 1   
    35    20    39 1   
    36    21    22 1   
    37    21    40 1   
    38    21    41 1   
    39    22    23 1   
    40    22    42 1   
    41    22    43 1   
    42    23    24 1   
    43    23    44 1   
    44    23    45 1   
    45    24    25 1   
    46    24    46 1   
    47    24    47 1   
    48    25    48 1   
    49    25    49 1   
@<TRIPOS>SUBSTRUCTURE
     1 T66         1 TEMP              0 ****  ****    0 ROOT
