@<TRIPOS>MOLECULE
T66
   49    49     1     0     0
SMALL
No Charge or Current Charge


@<TRIPOS>ATOM
      1 C8           2.7430    -1.3670    -0.1750 c3         1 T66       0.002000
      2 C7           2.2680     0.0790    -0.4630 c          1 T66       0.596100
      3 O7           2.4460     0.9690     0.3630 o          1 T66      -0.575100
      4 C5           1.0640     1.7140    -2.0020 c3         1 T66      -0.027300
      5 C            0.1330     2.2880    -0.8750 c          1 T66       0.729000
      6 O1          -0.8100     1.5950    -0.5110 o          1 T66      -0.718000
      7 OXT          0.3300     3.4160    -0.4400 o          1 T66      -0.718000
      8 N4           1.6330     0.3550    -1.7070 n          1 T66      -0.363800
      9 C3           1.3780    -0.7050    -2.7170 c3         1 T66       0.073000
     10 C2          -0.0320    -1.3360    -2.5980 c3         1 T66       0.110800
     11 N1          -0.2700    -2.3960    -3.6130 n8         1 T66      -0.998200
     12 N2           3.3780    -1.5690     1.1590 n          1 T66      -0.278000
     13 C6           2.6290    -2.0560     2.2320 cc         1 T66       0.027600
     14 C9           4.7390    -1.2330     1.3140 c          1 T66       0.624000
     15 O2           5.4320    -0.8020     0.4050 o          1 T66      -0.566000
     16 N3           5.2620    -1.4210     2.5530 ns         1 T66      -0.464500
     17 C4           4.6440    -1.8890     3.6680 c          1 T66       0.595200
     18 O4           5.2460    -2.0060     4.7230 o          1 T66      -0.559000
     19 C1           3.2130    -2.2270     3.4690 cd         1 T66      -0.286400
     20 C5M          2.4700    -2.7500     4.6780 c3         1 T66      -0.010900
     21 CB           2.1480     2.7160    -2.4990 c3         1 T66      -0.071400
     22 CG           2.9360     2.2450    -3.7450 c3         1 T66      -0.071400
     23 CD           3.9530     3.2930    -4.2490 c3         1 T66      -0.114400
     24 CE           4.7360     2.8160    -5.4880 c3         1 T66       0.135800
     25 NZ           5.6930     3.8430    -5.9390 n8         1 T66      -0.997200
     26 H8'1         1.8760    -2.0310    -0.2710 h1         1 T66       0.073200
     27 H8'2         3.4580    -1.6480    -0.9580 h1         1 T66       0.073200
     28 H5'1         0.3830     1.5870    -2.8540 h1         1 T66       0.023700
     29 H3'1         2.1420    -1.4890    -2.6560 h1         1 T66       0.026700
     30 H3'2         1.4740    -0.2580    -3.7150 h1         1 T66       0.026700
     31 H2'1        -0.7900    -0.5470    -2.7150 h1         1 T66       0.080200
     32 H2'2        -0.1530    -1.7660    -1.5920 h1         1 T66       0.080200
     33 H1'1         0.4600    -3.1150    -3.5340 hn         1 T66       0.379500
     34 H1'2        -0.1270    -2.0050    -4.5520 hn         1 T66       0.379500
     35 H6           1.5930    -2.2670     1.9830 h4         1 T66       0.216000
     36 HN3          6.2350    -1.1820     2.6570 hn         1 T66       0.332500
     37 HM51         2.9250    -3.6740     5.0550 hc         1 T66       0.040033
     38 HM52         1.4220    -2.9720     4.4400 hc         1 T66       0.040033
     39 HM53         2.4730    -2.0160     5.4930 hc         1 T66       0.040033
     40 HB1          1.6620     3.6690    -2.7400 hc         1 T66       0.063200
     41 HB2          2.8520     2.9190    -1.6830 hc         1 T66       0.063200
     42 HG1          2.2290     2.0130    -4.5520 hc         1 T66       0.025700
     43 HG2          3.4730     1.3180    -3.5100 hc         1 T66       0.025700
     44 HD1          4.6570     3.5250    -3.4400 hc         1 T66       0.036700
     45 HD2          3.4200     4.2220    -4.4910 hc         1 T66       0.036700
     46 HE1          5.2860     1.8950    -5.2470 h1         1 T66       0.045700
     47 HE2          4.0360     2.5960    -6.3070 h1         1 T66       0.045700
     48 HZ1          5.1830     4.7160    -6.1160 hn         1 T66       0.385000
     49 HZ2          6.3150     4.0820    -5.1570 hn         1 T66       0.385000
@<TRIPOS>BOND
     1     1     2 1   
     2     1    12 1   
     3     1    26 1   
     4     1    27 1   
     5     2     3 2   
     6     2     8 1   
     7     4     5 1   
     8     4     8 1   
     9     4    21 1   
    10     4    28 1   
    11     5     6 1   
    12     5     7 1   
    13     8     9 1   
    14     9    10 1   
    15     9    29 1   
    16     9    30 1   
    17    10    11 1   
    18    10    31 1   
    19    10    32 1   
    20    11    33 1   
    21    11    34 1   
    22    12    13 1   
    23    12    14 1   
    24    13    19 2   
    25    13    35 1   
    26    14    15 2   
    27    14    16 1   
    28    16    17 1   
    29    16    36 1   
    30    17    18 2   
    31    17    19 1   
    32    19    20 1   
    33    20    37 1   
    34    20    38 1   
    35    20    39 1   
    36    21    22 1   
    37    21    40 1   
    38    21    41 1   
    39    22    23 1   
    40    22    42 1   
    41    22    43 1   
    42    23    24 1   
    43    23    44 1   
    44    23    45 1   
    45    24    25 1   
    46    24    46 1   
    47    24    47 1   
    48    25    48 1   
    49    25    49 1   
@<TRIPOS>SUBSTRUCTURE
     1 T66         1 TEMP              0 ****  ****    0 ROOT
