@<TRIPOS>MOLECULE
T67
   37    39     1     0     0
SMALL
No Charge or Current Charge


@<TRIPOS>ATOM
      1 N1          -4.4260    -0.7960    -0.1140 n3         1 T67      -0.714600
      2 N3           3.7980     1.6970     0.2810 na         1 T67      -0.326400
      3 C4          -2.1990    -0.2830    -1.2000 c6         1 T67       0.097500
      4 C5          -3.7380    -0.0530    -1.2090 c6         1 T67       0.141800
      5 C7           0.1630     1.7150    -0.6690 c3         1 T67      -0.077200
      6 C8           1.6100     1.4500    -0.3340 cc         1 T67      -0.121400
      7 C10          3.5890     0.3580     0.0270 ca         1 T67       0.371500
      8 C13          1.7750    -1.0880    -0.6710 ca         1 T67      -0.016000
      9 C1          -5.8940    -0.6230    -0.1430 c3         1 T67       0.152100
     10 C11          4.0170    -1.8980    -0.1960 ca         1 T67       0.357900
     11 C12          2.6860    -2.1560    -0.5880 ca         1 T67      -0.199000
     12 C14          2.2770     0.1790    -0.3480 ca         1 T67      -0.118800
     13 C2          -3.8330    -0.4500     1.2100 c6         1 T67       0.141800
     14 C3          -2.3010    -0.7010     1.2320 c6         1 T67       0.097500
     15 C9           2.5710     2.3710     0.0580 cd         1 T67      -0.142100
     16 N2          -1.5970     0.0240     0.1350 n          1 T67      -0.420800
     17 N4           4.4730    -0.6560     0.1100 nb         1 T67      -0.686000
     18 O1          -0.8520     1.7030     1.5060 o          1 T67      -0.588100
     19 H9          -1.9940    -1.3340    -1.4460 h1         1 T67       0.060450
     20 H8          -1.7680     0.3240    -2.0030 h1         1 T67       0.060450
     21 H11         -4.1340    -0.3640    -2.1870 h1         1 T67       0.039450
     22 H10         -3.9310     1.0260    -1.1120 h1         1 T67       0.039450
     23 H13         -0.0250     1.2850    -1.6530 hc         1 T67       0.060200
     24 H12          0.0150     2.7990    -0.7360 hc         1 T67       0.060200
     25 H18          0.7420    -1.2420    -0.9700 ha         1 T67       0.120000
     26 H1          -6.1690     0.4290     0.0190 h1         1 T67       0.032367
     27 H2          -6.3030    -0.9400    -1.1110 h1         1 T67       0.032367
     28 H3          -6.3710    -1.2270     0.6400 h1         1 T67       0.032367
     29 H16          4.7390    -2.7100    -0.1250 h4         1 T67       0.016100
     30 H17          2.3750    -3.1700    -0.8220 ha         1 T67       0.120000
     31 H5          -4.0200     0.6090     1.4470 h1         1 T67       0.039450
     32 H4          -4.3000    -1.0470     2.0060 h1         1 T67       0.039450
     33 H7          -1.8980    -0.4160     2.2140 h1         1 T67       0.060450
     34 H6          -2.1170    -1.7790     1.1160 h1         1 T67       0.060450
     35 H14          2.4710     3.4460     0.1940 h4         1 T67       0.212000
     36 C6          -0.8140     1.1750     0.4000 c          1 T67       0.603100
     37 H15          4.6760     2.1050     0.5750 hn         1 T67       0.361000
@<TRIPOS>BOND
     1     1     4 1   
     2     1     9 1   
     3     1    13 1   
     4     2     7 1   
     5     2    15 1   
     6     2    37 1   
     7     3     4 1   
     8     3    16 1   
     9     3    19 1   
    10     3    20 1   
    11     4    21 1   
    12     4    22 1   
    13     5     6 1   
    14     5    23 1   
    15     5    24 1   
    16     5    36 1   
    17     6    12 1   
    18     6    15 2   
    19     7    12 ar  
    20     7    17 ar  
    21     8    11 ar  
    22     8    12 ar  
    23     8    25 1   
    24     9    26 1   
    25     9    27 1   
    26     9    28 1   
    27    10    11 ar  
    28    10    17 ar  
    29    10    29 1   
    30    11    30 1   
    31    13    14 1   
    32    13    31 1   
    33    13    32 1   
    34    14    16 1   
    35    14    33 1   
    36    14    34 1   
    37    15    35 1   
    38    16    36 1   
    39    18    36 2   
@<TRIPOS>SUBSTRUCTURE
     1 T67         1 TEMP              0 ****  ****    0 ROOT
