@<TRIPOS>MOLECULE
T67
   37    39     1     0     0
SMALL
abcg2


@<TRIPOS>ATOM
      1 N1          -4.7750    -0.1980    -0.1210 n3         1 T67      -0.714600
      2 N3           3.3080     2.0350     0.0830 na         1 T67      -0.326400
      3 C4          -2.6690    -0.2760    -1.3580 c6         1 T67       0.097500
      4 C5          -3.9320     0.5160    -1.0570 c6         1 T67       0.141800
      5 C7           0.0570     0.5850    -0.8850 c3         1 T67      -0.077200
      6 C8           1.4520     0.8980    -0.4750 cc         1 T67      -0.121400
      7 C10          3.6710     0.7250     0.0600 ca         1 T67       0.371500
      8 C13          2.6780    -1.4090    -0.3630 ca         1 T67      -0.016000
      9 C1          -6.0130     0.5060     0.1240 c3         1 T67       0.152100
     10 C11          4.9890    -1.0730     0.2290 ca         1 T67       0.357900
     11 C12          3.9340    -1.9300    -0.1030 ca         1 T67      -0.199000
     12 C14          2.5250    -0.0280    -0.2870 ca         1 T67      -0.118800
     13 C2          -4.0600    -0.4700     1.1110 c6         1 T67       0.141800
     14 C3          -2.8000    -1.2730     0.8350 c6         1 T67       0.097500
     15 C9           1.9800     2.1340    -0.2410 cd         1 T67      -0.142100
     16 N2          -1.9640    -0.5780    -0.1270 n          1 T67      -0.420800
     17 N4           4.8780     0.2450     0.3170 nb         1 T67      -0.686000
     18 O1          -0.2050    -0.4110     1.2740 o          1 T67      -0.588100
     19 H9          -2.9360    -1.2140    -1.8550 h1         1 T67       0.060450
     20 H8          -2.0450     0.2890    -2.0430 h1         1 T67       0.060450
     21 H11         -4.4810     0.6700    -1.9890 h1         1 T67       0.039450
     22 H10         -3.6480     1.5140    -0.6780 h1         1 T67       0.039450
     23 H13          0.0610     0.0020    -1.8110 hc         1 T67       0.060200
     24 H12         -0.4710     1.5130    -1.1230 hc         1 T67       0.060200
     25 H18          1.8500    -2.0590    -0.6190 ha         1 T67       0.120000
     26 H1          -5.8680     1.4950     0.5860 h1         1 T67       0.032367
     27 H2          -6.5490     0.6550    -0.8150 h1         1 T67       0.032367
     28 H3          -6.6530    -0.0800     0.7850 h1         1 T67       0.032367
     29 H16          5.9700    -1.4860     0.4340 h4         1 T67       0.016100
     30 H17          4.1130    -2.9960    -0.1500 ha         1 T67       0.120000
     31 H5          -3.7840     0.4580     1.6410 h1         1 T67       0.039450
     32 H4          -4.7070    -1.0440     1.7790 h1         1 T67       0.039450
     33 H7          -2.2470    -1.4330     1.7560 h1         1 T67       0.060450
     34 H6          -3.0690    -2.2530     0.4280 h1         1 T67       0.060450
     35 H14          1.5000     3.0990    -0.2870 h4         1 T67       0.212000
     36 C6          -0.7140    -0.1750     0.1880 c          1 T67       0.603100
     37 H15          3.9180     2.8080     0.2900 hn         1 T67       0.361000
@<TRIPOS>BOND
     1     1     4 1   
     2     1     9 1   
     3     1    13 1   
     4     2     7 1   
     5     2    15 1   
     6     2    37 1   
     7     3     4 1   
     8     3    16 1   
     9     3    19 1   
    10     3    20 1   
    11     4    21 1   
    12     4    22 1   
    13     5     6 1   
    14     5    23 1   
    15     5    24 1   
    16     5    36 1   
    17     6    12 1   
    18     6    15 2   
    19     7    12 ar  
    20     7    17 ar  
    21     8    11 ar  
    22     8    12 ar  
    23     8    25 1   
    24     9    26 1   
    25     9    27 1   
    26     9    28 1   
    27    10    11 ar  
    28    10    17 ar  
    29    10    29 1   
    30    11    30 1   
    31    13    14 1   
    32    13    31 1   
    33    13    32 1   
    34    14    16 1   
    35    14    33 1   
    36    14    34 1   
    37    15    35 1   
    38    16    36 1   
    39    18    36 2   
@<TRIPOS>SUBSTRUCTURE
     1 T67         1 TEMP              0 ****  ****    0 ROOT
