@<TRIPOS>MOLECULE
T68
   40    41     1     0     0
SMALL
No Charge or Current Charge


@<TRIPOS>ATOM
      1 C1           1.7070     0.3960    -0.5010 c6         1 T68       0.309700
      2 N1           0.2640     0.4770    -0.3100 ns         1 T68      -0.518900
      3 C2           2.4400     1.6480     0.0900 c6         1 T68       0.100300
      4 N2          -1.9170    -0.0900    -0.5660 ns         1 T68      -0.479500
      5 O2           2.0770     2.8750    -0.5890 oh         1 T68      -0.715000
      6 C3           3.9760     1.4280    -0.0140 c6         1 T68       0.139300
      7 N3          -4.1540     0.6190     0.8940 nb         1 T68      -0.686000
      8 O3           4.6760     2.5480     0.5540 oh         1 T68      -0.666000
      9 C4           4.3850     0.1020     0.6910 c6         1 T68       0.142300
     10 O4           5.8040    -0.1020     0.5520 oh         1 T68      -0.715000
     11 C5           3.5530    -1.0750     0.0900 c6         1 T68       0.179300
     12 O5           2.1340    -0.7830     0.2080 os         1 T68      -0.463000
     13 C6           3.8410    -2.4350     0.8110 c3         1 T68       0.172600
     14 O6           3.0510    -3.5320     0.3070 oh         1 T68      -0.705000
     15 C7          -0.6490    -0.2310    -1.0410 c          1 T68       0.669100
     16 O7          -0.3450    -0.8950    -2.0160 o          1 T68      -0.555100
     17 C8          -3.1080    -0.6210    -1.0090 c          1 T68       0.525600
     18 O8          -3.1810    -1.3590    -1.9850 o          1 T68      -0.520100
     19 C9          -4.3310    -0.2120    -0.1810 ca         1 T68       0.278500
     20 C10         -5.6130    -0.6940    -0.5350 ca         1 T68      -0.099000
     21 C11         -6.7330    -0.3180     0.2250 ca         1 T68      -0.079000
     22 C12         -6.5370     0.5330     1.3240 ca         1 T68      -0.142000
     23 C13         -5.2380     0.9760     1.6220 ca         1 T68       0.339900
     24 H1           1.9340     0.2970    -1.5750 h2         1 T68       0.091700
     25 HN1         -0.0730     0.9620     0.5100 hn         1 T68       0.309500
     26 H2           2.1750     1.7230     1.1560 h1         1 T68       0.048700
     27 HN2         -2.0230     0.4960     0.2490 hn         1 T68       0.343500
     28 HO2          1.0920     2.9310    -0.5960 ho         1 T68       0.517000
     29 H3           4.2290     1.3390    -1.0820 h1         1 T68       0.059700
     30 HO3          4.1370     3.3320     0.2940 ho         1 T68       0.466000
     31 H4           4.1280     0.1890     1.7580 h1         1 T68       0.051700
     32 HO4          6.2010     0.7950     0.6750 ho         1 T68       0.525000
     33 H5           3.8040    -1.1940    -0.9740 h1         1 T68       0.068700
     34 H6           4.9090    -2.6640     0.6980 h1         1 T68       0.034200
     35 H6A          3.6520    -2.2970     1.8850 h1         1 T68       0.034200
     36 HO6          3.2570    -4.3160     0.8680 ho         1 T68       0.503000
     37 H10         -5.7340    -1.3520    -1.3920 ha         1 T68       0.152000
     38 H11         -7.7280    -0.6780    -0.0310 ha         1 T68       0.128000
     39 H12         -7.3740     0.8500     1.9400 ha         1 T68       0.129000
     40 H13         -5.0590     1.6370     2.4690 h4         1 T68       0.023100
@<TRIPOS>BOND
     1     1     2 1   
     2     1     3 1   
     3     1    12 1   
     4     1    24 1   
     5     2    15 1   
     6     2    25 1   
     7     3     5 1   
     8     3     6 1   
     9     3    26 1   
    10     4    15 1   
    11     4    17 1   
    12     4    27 1   
    13     5    28 1   
    14     6     8 1   
    15     6     9 1   
    16     6    29 1   
    17     7    19 ar  
    18     7    23 ar  
    19     8    30 1   
    20     9    10 1   
    21     9    11 1   
    22     9    31 1   
    23    10    32 1   
    24    11    12 1   
    25    11    13 1   
    26    11    33 1   
    27    13    14 1   
    28    13    34 1   
    29    13    35 1   
    30    14    36 1   
    31    15    16 2   
    32    17    18 2   
    33    17    19 1   
    34    19    20 ar  
    35    20    21 ar  
    36    20    37 1   
    37    21    22 ar  
    38    21    38 1   
    39    22    23 ar  
    40    22    39 1   
    41    23    40 1   
@<TRIPOS>SUBSTRUCTURE
     1 T68         1 TEMP              0 ****  ****    0 ROOT
