@<TRIPOS>MOLECULE
T68
   40    41     1     0     0
SMALL
bcc


@<TRIPOS>ATOM
      1 C1           1.6600     0.3060    -0.3610 c6         1 T68       0.286500
      2 N1           0.2590     0.4230    -0.1320 ns         1 T68      -0.585900
      3 C2           2.3750     1.5860     0.0800 c6         1 T68       0.077100
      4 N2          -1.9550    -0.0380    -0.4370 ns         1 T68      -0.613500
      5 O2           1.9960     2.6860    -0.7060 oh         1 T68      -0.592800
      6 C3           3.8770     1.4000    -0.0850 c6         1 T68       0.116100
      7 N3          -4.1480     0.5080     0.9150 nb         1 T68      -0.686000
      8 O3           4.6030     2.4810     0.4480 oh         1 T68      -0.603800
      9 C4           4.3460     0.1360     0.6270 c6         1 T68       0.119100
     10 O4           5.6990    -0.1300     0.3510 oh         1 T68      -0.592800
     11 C5           3.5160    -1.0560     0.1500 c6         1 T68       0.156100
     12 O5           2.1450    -0.7950     0.3700 os         1 T68      -0.416600
     13 C6           3.8700    -2.3270     0.8940 c3         1 T68       0.149400
     14 O6           3.1450    -3.3960     0.3360 oh         1 T68      -0.582800
     15 C7          -0.6630    -0.1810    -0.9300 c          1 T68       0.803100
     16 O7          -0.3970    -0.7590    -1.9600 o          1 T68      -0.555100
     17 C8          -3.1010    -0.5150    -1.0080 c          1 T68       0.592600
     18 O8          -3.1700    -1.1440    -2.0390 o          1 T68      -0.520100
     19 C9          -4.3280    -0.1770    -0.2090 ca         1 T68       0.343800
     20 C10         -5.5750    -0.5800    -0.6610 ca         1 T68      -0.182300
     21 C11         -6.6830    -0.2510     0.1050 ca         1 T68      -0.097000
     22 C12         -6.4990     0.4600     1.2800 ca         1 T68      -0.225300
     23 C13         -5.2070     0.8190     1.6440 ca         1 T68       0.405200
     24 H1           1.8250     0.1550    -1.4350 h2         1 T68       0.091700
     25 HN1         -0.0310     0.7820     0.7660 hn         1 T68       0.309500
     26 H2           2.1560     1.7570     1.1460 h1         1 T68       0.048700
     27 HN2         -2.1050     0.4710     0.4270 hn         1 T68       0.343500
     28 HO2          1.0840     2.9160    -0.5030 ho         1 T68       0.418000
     29 H3           4.0890     1.2780    -1.1590 h1         1 T68       0.059700
     30 HO3          4.4570     3.2520    -0.1090 ho         1 T68       0.427000
     31 H4           4.1800     0.2630     1.7090 h1         1 T68       0.051700
     32 HO4          6.2200     0.6220     0.6510 ho         1 T68       0.426000
     33 H5           3.7040    -1.2050    -0.9260 h1         1 T68       0.068700
     34 H6           4.9510    -2.4840     0.8140 h1         1 T68       0.034200
     35 H6A          3.6410    -2.1890     1.9600 h1         1 T68       0.034200
     36 HO6          3.4050    -4.2000     0.7940 ho         1 T68       0.404000
     37 H10         -5.6780    -1.1350    -1.5820 ha         1 T68       0.170000
     38 H11         -7.6750    -0.5440    -0.2120 ha         1 T68       0.146000
     39 H12         -7.3360     0.7350     1.9080 ha         1 T68       0.147000
     40 H13         -5.0250     1.3770     2.5540 h4         1 T68       0.023100
@<TRIPOS>BOND
     1     1     2 1   
     2     1     3 1   
     3     1    12 1   
     4     1    24 1   
     5     2    15 1   
     6     2    25 1   
     7     3     5 1   
     8     3     6 1   
     9     3    26 1   
    10     4    15 1   
    11     4    17 1   
    12     4    27 1   
    13     5    28 1   
    14     6     8 1   
    15     6     9 1   
    16     6    29 1   
    17     7    19 ar  
    18     7    23 ar  
    19     8    30 1   
    20     9    10 1   
    21     9    11 1   
    22     9    31 1   
    23    10    32 1   
    24    11    12 1   
    25    11    13 1   
    26    11    33 1   
    27    13    14 1   
    28    13    34 1   
    29    13    35 1   
    30    14    36 1   
    31    15    16 2   
    32    17    18 2   
    33    17    19 1   
    34    19    20 ar  
    35    20    21 ar  
    36    20    37 1   
    37    21    22 ar  
    38    21    38 1   
    39    22    23 ar  
    40    22    39 1   
    41    23    40 1   
@<TRIPOS>SUBSTRUCTURE
     1 T68         1 TEMP              0 ****  ****    0 ROOT
