@<TRIPOS>MOLECULE
T69
   59    59     1     0     0
SMALL
No Charge or Current Charge


@<TRIPOS>ATOM
      1 C15        143.3380   159.8680   113.3040 c3         1 T69       0.184300
      2 C16        143.9960   161.2960   113.4540 c3         1 T69      -0.039000
      3 C17        141.1310   158.3970   113.4340 c3         1 T69      -0.064700
      4 C18        141.8130   159.7880   113.6240 c3         1 T69      -0.108400
      5 C19        141.2520   157.8730   111.9680 c3         1 T69      -0.111400
      6 C20        140.6010   156.4900   111.6700 c3         1 T69       0.172300
      7 C21        143.3090   162.3140   112.4990 c3         1 T69      -0.081100
      8 C22        145.4980   161.2210   113.0540 c3         1 T69      -0.081100
      9 C23        143.8980   161.8370   114.9110 c3         1 T69      -0.081100
     10 C24        139.6550   158.4710   113.9020 c3         1 T69      -0.090100
     11 C25        140.8080   155.9830   110.2070 c3         1 T69      -0.042700
     12 C26        140.1870   154.5650   109.9990 c5         1 T69       0.346500
     13 C28        140.3370   157.0180   109.1430 c3         1 T69      -0.082100
     14 C33        139.7060   152.7530   108.4980 c5         1 T69       0.209700
     15 C34        138.2380   153.1550   108.8290 c5         1 T69       0.093600
     16 C41        140.2390   151.7550   109.5300 c2         1 T69      -0.326200
     17 C44        141.2880   150.9360   109.1990 ce         1 T69      -0.139400
     18 C48        141.8260   149.9190   110.2060 c          1 T69       0.703200
     19 C51        141.9830   151.0020   107.8300 c3         1 T69      -0.042900
     20 N12        140.5170   153.9770   108.6780 n7         1 T69      -0.882400
     21 O02        144.0270   158.9150   114.1270 oh         1 T69      -0.669000
     22 O03        141.1530   155.5270   112.5790 oh         1 T69      -0.658000
     23 O08        141.3080   149.8590   111.3130 o          1 T69      -0.720500
     24 S01        138.3300   154.6030   109.9980 ss         1 T69      -0.510000
     25 H151       143.4670   159.5830   112.2510 h1         1 T69       0.028700
     26 H171       141.6380   157.6880   114.1000 hc         1 T69       0.047700
     27 H181       141.6550   160.1060   114.6620 hc         1 T69       0.046200
     28 H182       141.2750   160.5080   112.9970 hc         1 T69       0.046200
     29 H192       142.3100   157.8080   111.6890 hc         1 T69       0.045200
     30 H191       140.8030   158.6290   111.3120 hc         1 T69       0.045200
     31 H201       139.5190   156.5790   111.8380 h1         1 T69       0.042700
     32 H212       142.2760   162.5210   112.8020 hc         1 T69       0.033478
     33 H213       143.8430   163.2730   112.4990 hc         1 T69       0.033478
     34 H211       143.2950   161.9370   111.4690 hc         1 T69       0.033478
     35 H223       145.9650   162.2130   113.0840 hc         1 T69       0.033478
     36 H222       146.0640   160.5720   113.7330 hc         1 T69       0.033478
     37 H221       145.6130   160.8270   112.0360 hc         1 T69       0.033478
     38 H233       142.8560   161.9900   115.2140 hc         1 T69       0.033478
     39 H231       144.3630   161.1470   115.6250 hc         1 T69       0.033478
     40 H232       144.4100   162.8030   115.0010 hc         1 T69       0.033478
     41 H242       139.5900   158.8760   114.9190 hc         1 T69       0.034033
     42 H243       139.0670   159.1180   113.2390 hc         1 T69       0.034033
     43 H241       139.1890   157.4790   113.9160 hc         1 T69       0.034033
     44 H251       141.8900   155.8740   110.0690 hc         1 T69       0.053700
     45 H1         140.5210   153.9030   110.8100 h2         1 T69       0.085700
     46 H281       140.9680   157.9130   109.1560 hc         1 T69       0.036700
     47 H282       140.3970   156.6030   108.1300 hc         1 T69       0.036700
     48 H283       139.3000   157.3260   109.3230 hc         1 T69       0.036700
     49 H331       139.7700   152.3640   107.4720 h1         1 T69       0.066700
     50 H342       137.7150   153.4750   107.9190 h1         1 T69       0.063200
     51 H341       137.6700   152.3250   109.2700 h1         1 T69       0.063200
     52 H411       139.7660   151.6790   110.5100 ha         1 T69       0.207000
     53 H511       141.3610   150.5410   107.0540 hc         1 T69       0.024033
     54 H512       142.1850   152.0350   107.5230 hc         1 T69       0.024033
     55 H513       142.9540   150.4940   107.8090 hc         1 T69       0.024033
     56 H3         141.5060   153.7150   108.6710 hn         1 T69       0.426000
     57 H5         143.6490   158.0370   113.9130 ho         1 T69       0.449000
     58 H031       140.8840   155.8020   113.4810 ho         1 T69       0.439000
     59 O1         142.7470   149.1810   109.8840 o          1 T69      -0.720500
@<TRIPOS>BOND
     1     1     2 1   
     2     1     4 1   
     3     1    21 1   
     4     1    25 1   
     5     2     7 1   
     6     2     8 1   
     7     2     9 1   
     8     3     4 1   
     9     3     5 1   
    10     3    10 1   
    11     3    26 1   
    12     4    27 1   
    13     4    28 1   
    14     5     6 1   
    15     5    29 1   
    16     5    30 1   
    17     6    11 1   
    18     6    22 1   
    19     6    31 1   
    20     7    32 1   
    21     7    33 1   
    22     7    34 1   
    23     8    35 1   
    24     8    36 1   
    25     8    37 1   
    26     9    38 1   
    27     9    39 1   
    28     9    40 1   
    29    10    41 1   
    30    10    42 1   
    31    10    43 1   
    32    11    12 1   
    33    11    13 1   
    34    11    44 1   
    35    12    20 1   
    36    12    24 1   
    37    12    45 1   
    38    13    46 1   
    39    13    47 1   
    40    13    48 1   
    41    14    15 1   
    42    14    16 1   
    43    14    20 1   
    44    14    49 1   
    45    15    24 1   
    46    15    50 1   
    47    15    51 1   
    48    16    17 2   
    49    16    52 1   
    50    17    18 1   
    51    17    19 1   
    52    18    23 1   
    53    18    59 1   
    54    19    53 1   
    55    19    54 1   
    56    19    55 1   
    57    20    56 1   
    58    21    57 1   
    59    22    58 1   
@<TRIPOS>SUBSTRUCTURE
     1 T69         1 TEMP              0 ****  ****    0 ROOT
