@<TRIPOS>MOLECULE
T69
   59    59     1     0     0
SMALL
abcg2


@<TRIPOS>ATOM
      1 C15        143.2880   160.0180   113.2810 c3         1 T69       0.184300
      2 C16        143.8040   161.4680   113.4040 c3         1 T69      -0.039000
      3 C17        141.2610   158.4130   113.5400 c3         1 T69      -0.064700
      4 C18        141.8120   159.8430   113.6440 c3         1 T69      -0.108400
      5 C19        141.3870   157.8790   112.1080 c3         1 T69      -0.111400
      6 C20        140.8490   156.4670   111.8750 c3         1 T69       0.172300
      7 C21        142.9770   162.3820   112.4980 c3         1 T69      -0.081100
      8 C22        145.2600   161.5230   112.9280 c3         1 T69      -0.081100
      9 C23        143.7280   161.9860   114.8430 c3         1 T69      -0.081100
     10 C24        139.8120   158.4050   114.0220 c3         1 T69      -0.090100
     11 C25        141.1240   155.9790   110.4490 c3         1 T69      -0.042700
     12 C26        140.6130   154.5490   110.2370 c5         1 T69       0.346500
     13 C28        140.5860   156.9500   109.4030 c3         1 T69      -0.082100
     14 C33        140.0830   152.9660   108.5020 c5         1 T69       0.209700
     15 C34        138.6910   153.5650   108.6900 c5         1 T69       0.093600
     16 C41        140.2500   151.6970   109.2870 c2         1 T69      -0.326200
     17 C44        140.8610   150.5730   108.9000 ce         1 T69      -0.139400
     18 C48        140.9480   149.3930   109.8760 c          1 T69       0.703200
     19 C51        141.4920   150.3730   107.5540 c3         1 T69      -0.042900
     20 N12        140.9770   154.0420   108.9240 n7         1 T69      -0.882400
     21 O02        144.1110   159.1940   114.0880 oh         1 T69      -0.669000
     22 O03        141.4410   155.5350   112.7630 oh         1 T69      -0.658000
     23 O08        140.4520   149.5400   111.0110 o          1 T69      -0.720500
     24 S01        138.7750   154.4270   110.2900 ss         1 T69      -0.510000
     25 H151       143.4150   159.7450   112.2220 h1         1 T69       0.028700
     26 H171       141.8390   157.7740   114.2180 hc         1 T69       0.047700
     27 H181       141.6450   160.2000   114.6650 hc         1 T69       0.046200
     28 H182       141.2060   160.4790   112.9920 hc         1 T69       0.046200
     29 H192       142.4360   157.8980   111.7930 hc         1 T69       0.045200
     30 H191       140.8560   158.5720   111.4480 hc         1 T69       0.045200
     31 H201       139.7560   156.4820   112.0120 h1         1 T69       0.042700
     32 H212       141.9440   162.4830   112.8350 hc         1 T69       0.033478
     33 H213       143.4080   163.3850   112.4800 hc         1 T69       0.033478
     34 H211       142.9590   162.0130   111.4690 hc         1 T69       0.033478
     35 H223       145.6230   162.5530   112.9420 hc         1 T69       0.033478
     36 H222       145.9220   160.9320   113.5580 hc         1 T69       0.033478
     37 H221       145.3550   161.1560   111.9030 hc         1 T69       0.033478
     38 H233       142.7020   162.0180   115.2110 hc         1 T69       0.033478
     39 H231       144.3130   161.3730   115.5290 hc         1 T69       0.033478
     40 H232       144.1210   163.0030   114.8960 hc         1 T69       0.033478
     41 H242       139.7330   158.8310   115.0240 hc         1 T69       0.034033
     42 H243       139.1780   158.9980   113.3590 hc         1 T69       0.034033
     43 H241       139.3890   157.4010   114.0680 hc         1 T69       0.034033
     44 H251       142.2160   155.9210   110.3320 hc         1 T69       0.053700
     45 H1         140.9880   153.9160   111.0450 h2         1 T69       0.085700
     46 H281       141.1810   157.8610   109.3650 hc         1 T69       0.036700
     47 H282       140.6180   156.4950   108.4140 hc         1 T69       0.036700
     48 H283       139.5530   157.2340   109.6090 hc         1 T69       0.036700
     49 H331       140.2480   152.7910   107.4370 h1         1 T69       0.066700
     50 H342       138.4590   154.2700   107.8920 h1         1 T69       0.063200
     51 H341       137.9130   152.8040   108.7250 h1         1 T69       0.063200
     52 H411       139.8470   151.7180   110.2950 ha         1 T69       0.207000
     53 H511       141.0370   149.5340   107.0250 hc         1 T69       0.024033
     54 H512       141.4160   151.2490   106.9120 hc         1 T69       0.024033
     55 H513       142.5520   150.1330   107.6530 hc         1 T69       0.024033
     56 H3         141.9380   153.7190   108.9440 hn         1 T69       0.426000
     57 H5         143.9470   158.2750   113.8550 ho         1 T69       0.449000
     58 H031       141.1080   155.6930   113.6510 ho         1 T69       0.439000
     59 O1         141.5170   148.3710   109.4410 o          1 T69      -0.720500
@<TRIPOS>BOND
     1     1     2 1   
     2     1     4 1   
     3     1    21 1   
     4     1    25 1   
     5     2     7 1   
     6     2     8 1   
     7     2     9 1   
     8     3     4 1   
     9     3     5 1   
    10     3    10 1   
    11     3    26 1   
    12     4    27 1   
    13     4    28 1   
    14     5     6 1   
    15     5    29 1   
    16     5    30 1   
    17     6    11 1   
    18     6    22 1   
    19     6    31 1   
    20     7    32 1   
    21     7    33 1   
    22     7    34 1   
    23     8    35 1   
    24     8    36 1   
    25     8    37 1   
    26     9    38 1   
    27     9    39 1   
    28     9    40 1   
    29    10    41 1   
    30    10    42 1   
    31    10    43 1   
    32    11    12 1   
    33    11    13 1   
    34    11    44 1   
    35    12    20 1   
    36    12    24 1   
    37    12    45 1   
    38    13    46 1   
    39    13    47 1   
    40    13    48 1   
    41    14    15 1   
    42    14    16 1   
    43    14    20 1   
    44    14    49 1   
    45    15    24 1   
    46    15    50 1   
    47    15    51 1   
    48    16    17 2   
    49    16    52 1   
    50    17    18 1   
    51    17    19 1   
    52    18    23 1   
    53    18    59 1   
    54    19    53 1   
    55    19    54 1   
    56    19    55 1   
    57    20    56 1   
    58    21    57 1   
    59    22    58 1   
@<TRIPOS>SUBSTRUCTURE
     1 T69         1 TEMP              0 ****  ****    0 ROOT
