@<TRIPOS>MOLECULE
T6B
   40    43     1     0     0
SMALL
No Charge or Current Charge


@<TRIPOS>ATOM
      1 C1           0.9370    12.1290    -5.2270 cc         1 T6B       0.084500
      2 C2           0.5140    13.3930    -4.8480 cd         1 T6B      -0.142000
      3 C3           0.7010    14.2570    -5.9490 cd         1 T6B      -0.171000
      4 C4           1.2370    13.4930    -6.9420 cc         1 T6B       0.216500
      5 C5           1.5210    13.9370    -8.3060 ca         1 T6B      -0.055500
      6 C6           2.0550    15.1990    -8.6210 ca         1 T6B      -0.106800
      7 C7           2.3000    15.5870    -9.9240 ca         1 T6B       0.362500
      8 N1           2.0550    14.7870   -10.9850 nb         1 T6B      -0.671000
      9 N2           0.6860    10.6990    -3.1010 n          1 T6B      -0.403800
     10 C9           2.9560    17.3430    -8.5470 cc         1 T6B      -0.141100
     11 O            1.2360     9.7780    -5.1170 o          1 T6B      -0.584100
     12 C            0.9610    10.8030    -4.5000 c          1 T6B       0.539600
     13 C16          0.3880    11.8650    -2.2070 c6         1 T6B       0.067000
     14 C15          0.3920    11.5850    -0.6820 c6         1 T6B       0.134100
     15 O2          -0.2620    10.3410    -0.3880 os         1 T6B      -0.449000
     16 C14          0.4330     9.2290    -0.9700 c6         1 T6B       0.134100
     17 C13          0.4400     9.3330    -2.5160 c6         1 T6B       0.067000
     18 O1           1.3490    12.1840    -6.5500 os         1 T6B      -0.210000
     19 C12          1.2770    13.0960    -9.4110 ca         1 T6B      -0.161000
     20 C11          1.5510    13.5560   -10.7180 ca         1 T6B       0.347900
     21 C10          2.4790    16.2960    -7.7790 cd         1 T6B      -0.241200
     22 N            2.8280    16.8770    -9.8710 na         1 T6B      -0.200400
     23 H1           0.0740    13.7090    -3.9130 ha         1 T6B       0.141000
     24 H2           0.4400    15.3080    -6.0070 ha         1 T6B       0.146000
     25 H3           3.3620    18.3160    -8.2820 h4         1 T6B       0.215000
     26 H4           3.5790    18.5940   -10.8480 h1         1 T6B       0.053367
     27 H5           3.9730    17.0380   -11.6360 h1         1 T6B       0.053367
     28 H6           2.3150    17.7020   -11.7440 h1         1 T6B       0.053367
     29 H7           1.1310    12.6540    -2.3850 h1         1 T6B       0.063200
     30 H8          -0.6060    12.2540    -2.4680 h1         1 T6B       0.063200
     31 H9          -0.1200    12.4000    -0.1510 h1         1 T6B       0.055700
     32 H10          1.4270    11.5430    -0.3130 h1         1 T6B       0.055700
     33 H11         -0.0530     8.2930    -0.6600 h1         1 T6B       0.055700
     34 H12          1.4660     9.2120    -0.5930 h1         1 T6B       0.055700
     35 H13         -0.5320     8.9770    -2.8860 h1         1 T6B       0.063200
     36 H14          1.1960     8.6290    -2.8930 h1         1 T6B       0.063200
     37 H15          0.8700    12.0980    -9.2720 ha         1 T6B       0.141000
     38 H16          1.3590    12.9160   -11.5780 h4         1 T6B       0.023100
     39 H17          2.4580    16.3060    -6.6920 ha         1 T6B       0.206000
     40 C8           3.1970    17.5970   -11.0990 c3         1 T6B       0.074900
@<TRIPOS>BOND
     1     1     2 2   
     2     1    12 1   
     3     1    18 1   
     4     2     3 1   
     5     2    23 1   
     6     3     4 2   
     7     3    24 1   
     8     4     5 1   
     9     4    18 1   
    10     5     6 ar  
    11     5    19 ar  
    12     6     7 ar  
    13     6    21 1   
    14     7     8 ar  
    15     7    22 1   
    16     8    20 ar  
    17     9    12 1   
    18     9    13 1   
    19     9    17 1   
    20    10    21 2   
    21    10    22 1   
    22    10    25 1   
    23    11    12 2   
    24    13    14 1   
    25    13    29 1   
    26    13    30 1   
    27    14    15 1   
    28    14    31 1   
    29    14    32 1   
    30    15    16 1   
    31    16    17 1   
    32    16    33 1   
    33    16    34 1   
    34    17    35 1   
    35    17    36 1   
    36    19    20 ar  
    37    19    37 1   
    38    20    38 1   
    39    21    39 1   
    40    22    40 1   
    41    26    40 1   
    42    27    40 1   
    43    28    40 1   
@<TRIPOS>SUBSTRUCTURE
     1 T6B         1 TEMP              0 ****  ****    0 ROOT
