@<TRIPOS>MOLECULE
T6B
   40    43     1     0     0
SMALL
abcg2


@<TRIPOS>ATOM
      1 C1           1.5810    12.3230    -4.8030 cc         1 T6B       0.084500
      2 C2           2.0000    13.5230    -4.2970 cd         1 T6B      -0.142000
      3 C3           2.1390    14.4080    -5.3960 cd         1 T6B      -0.171000
      4 C4           1.7920    13.7020    -6.5200 cc         1 T6B       0.216500
      5 C5           1.6970    14.0310    -7.9280 ca         1 T6B      -0.055500
      6 C6           2.0960    15.2780    -8.4470 ca         1 T6B      -0.106800
      7 C7           1.9390    15.4650    -9.8530 ca         1 T6B       0.362500
      8 N1           1.4580    14.5890   -10.7280 nb         1 T6B      -0.671000
      9 N2           1.0680    10.8300    -2.9550 n          1 T6B      -0.403800
     10 C9           2.8100    17.3340    -9.0140 cc         1 T6B      -0.141100
     11 O            1.4750     9.9920    -5.0290 o          1 T6B      -0.584100
     12 C            1.3570    10.9620    -4.2720 c          1 T6B       0.539600
     13 C16          0.6300    11.9110    -2.0650 c6         1 T6B       0.067000
     14 C15         -0.3430    11.3420    -1.0270 c6         1 T6B       0.134100
     15 O2          -1.2240    10.4110    -1.6380 os         1 T6B      -0.449000
     16 C14         -0.5440     9.2210    -2.0630 c6         1 T6B       0.134100
     17 C13          0.9280     9.4960    -2.3830 c6         1 T6B       0.067000
     18 O1           1.4600    12.4290    -6.1600 os         1 T6B      -0.210000
     19 C12          1.1920    13.1020    -8.8470 ca         1 T6B      -0.161000
     20 C11          1.0930    13.4160   -10.2010 ca         1 T6B       0.347900
     21 C10          2.6560    16.4920    -7.9410 cd         1 T6B      -0.241200
     22 N            2.3800    16.7260   -10.1690 na         1 T6B      -0.200400
     23 H1           2.2080    13.7520    -3.2670 ha         1 T6B       0.141000
     24 H2           2.4470    15.4360    -5.3490 ha         1 T6B       0.146000
     25 H3           3.1990    18.3390    -9.0480 h4         1 T6B       0.215000
     26 H4           2.7650    18.3200   -11.4340 h1         1 T6B       0.053367
     27 H5           3.0390    16.7240   -12.1620 h1         1 T6B       0.053367
     28 H6           1.3840    17.3150   -11.9180 h1         1 T6B       0.053367
     29 H7           1.4800    12.3720    -1.5520 h1         1 T6B       0.063200
     30 H8           0.1280    12.6720    -2.6570 h1         1 T6B       0.063200
     31 H9          -0.9530    12.1490    -0.6250 h1         1 T6B       0.055700
     32 H10          0.1940    10.8760    -0.1950 h1         1 T6B       0.055700
     33 H11         -1.0720     8.8730    -2.9510 h1         1 T6B       0.055700
     34 H12         -0.6110     8.4520    -1.2850 h1         1 T6B       0.055700
     35 H13          1.3020     8.7620    -3.0890 h1         1 T6B       0.063200
     36 H14          1.5380     9.4450    -1.4790 h1         1 T6B       0.063200
     37 H15          0.8700    12.1280    -8.5090 ha         1 T6B       0.141000
     38 H16          0.6980    12.6800   -10.8920 h4         1 T6B       0.023100
     39 H17          2.9240    16.7330    -6.9280 ha         1 T6B       0.206000
     40 C8           2.3910    17.3020   -11.5010 c3         1 T6B       0.074900
@<TRIPOS>BOND
     1     1     2 2   
     2     1    12 1   
     3     1    18 1   
     4     2     3 1   
     5     2    23 1   
     6     3     4 2   
     7     3    24 1   
     8     4     5 1   
     9     4    18 1   
    10     5     6 ar  
    11     5    19 ar  
    12     6     7 ar  
    13     6    21 1   
    14     7     8 ar  
    15     7    22 1   
    16     8    20 ar  
    17     9    12 1   
    18     9    13 1   
    19     9    17 1   
    20    10    21 2   
    21    10    22 1   
    22    10    25 1   
    23    11    12 2   
    24    13    14 1   
    25    13    29 1   
    26    13    30 1   
    27    14    15 1   
    28    14    31 1   
    29    14    32 1   
    30    15    16 1   
    31    16    17 1   
    32    16    33 1   
    33    16    34 1   
    34    17    35 1   
    35    17    36 1   
    36    19    20 ar  
    37    19    37 1   
    38    20    38 1   
    39    21    39 1   
    40    22    40 1   
    41    26    40 1   
    42    27    40 1   
    43    28    40 1   
@<TRIPOS>SUBSTRUCTURE
     1 T6B         1 TEMP              0 ****  ****    0 ROOT
