@<TRIPOS>MOLECULE
T6C
   13    13     1     0     0
SMALL
bcc


@<TRIPOS>ATOM
      1 CL2          1.2660    -2.7960    -0.0300 cl         1 T6C      -0.083900
      2 C2           0.4220    -1.2940    -0.0300 ca         1 T6C      -0.038600
      3 C1           1.1660    -0.1170    -0.1150 ca         1 T6C       0.166100
      4 C6           0.4550     1.0840    -0.1120 ca         1 T6C      -0.038600
      5 CL6          1.3460     2.5620    -0.2190 cl         1 T6C      -0.083900
      6 O1           2.4920    -0.2040    -0.1940 oh         1 T6C      -0.465100
      7 C3          -0.9590    -1.2840     0.0550 ca         1 T6C      -0.071000
      8 C4          -1.6220    -0.0680     0.0550 ca         1 T6C      -0.003600
      9 CL4         -3.3470    -0.0400     0.1610 cl         1 T6C      -0.090400
     10 C5          -0.9260     1.1250    -0.0280 ca         1 T6C      -0.071000
     11 H1           2.8990     0.6700    -0.2610 ho         1 T6C       0.446000
     12 H2          -1.5040    -2.2150     0.1220 ha         1 T6C       0.166500
     13 H3          -1.4420     2.0740    -0.0260 ha         1 T6C       0.166500
@<TRIPOS>BOND
     1     1     2 1   
     2     2     3 ar  
     3     2     7 ar  
     4     3     4 ar  
     5     3     6 1   
     6     4     5 1   
     7     4    10 ar  
     8     6    11 1   
     9     7     8 ar  
    10     7    12 1   
    11     8     9 1   
    12     8    10 ar  
    13    10    13 1   
@<TRIPOS>SUBSTRUCTURE
     1 T6C         1 TEMP              0 ****  ****    0 ROOT
