@<TRIPOS>MOLECULE
T6C
   13    13     1     0     0
SMALL
No Charge or Current Charge


@<TRIPOS>ATOM
      1 Cl2          1.2490    -2.9080    -0.0270 cl         1 T6C      -0.175500
      2 C2           0.4360    -1.3410    -0.0290 ca         1 T6C       0.053000
      3 C1           1.1730    -0.1380    -0.1170 ca         1 T6C       0.166100
      4 C6           0.4880     1.0980    -0.1160 ca         1 T6C       0.053000
      5 Cl6          1.3760     2.6190    -0.2240 cl         1 T6C      -0.175500
      6 O1           2.5430    -0.1700    -0.2020 oh         1 T6C      -0.504100
      7 C3          -0.9670    -1.3030     0.0570 ca         1 T6C      -0.053000
      8 C4          -1.6400    -0.0700     0.0570 ca         1 T6C       0.088000
      9 Cl4         -3.3950    -0.0280     0.1660 cl         1 T6C      -0.182000
     10 C5          -0.9140     1.1290    -0.0290 ca         1 T6C      -0.053000
     11 H1           2.8680     0.7560    -0.2540 ho         1 T6C       0.485000
     12 H2          -1.5330    -2.2290     0.1250 ha         1 T6C       0.148500
     13 H3          -1.4380     2.0810    -0.0290 ha         1 T6C       0.148500
@<TRIPOS>BOND
     1     1     2 1   
     2     2     3 ar  
     3     2     7 ar  
     4     3     4 ar  
     5     3     6 1   
     6     4     5 1   
     7     4    10 ar  
     8     6    11 1   
     9     7     8 ar  
    10     7    12 1   
    11     8     9 1   
    12     8    10 ar  
    13    10    13 1   
@<TRIPOS>SUBSTRUCTURE
     1 T6C         1 TEMP              0 ****  ****    0 ROOT
