@<TRIPOS>MOLECULE
T6E
   44    47     1     0     0
SMALL
No Charge or Current Charge


@<TRIPOS>ATOM
      1 C4           5.7590    -0.7510    -1.5360 ca         1 T6E       0.432900
      2 C5           5.8030    -0.2750    -0.2160 ca         1 T6E      -0.233800
      3 C6           7.0430     0.0440     0.3040 ca         1 T6E       0.162300
      4 N1           8.1870    -0.1050    -0.3900 nb         1 T6E      -0.191000
      5 N3           6.8790    -0.9120    -2.2580 nb         1 T6E      -0.291000
      6 NBF          4.6080    -1.0490    -2.1850 nv         1 T6E      -1.072900
      7 C2           8.0420    -0.5870    -1.6460 ca         1 T6E       0.175900
      8 CBB          4.7280    -0.0020     0.7190 cc         1 T6E       0.011600
      9 CAZ          3.3010    -0.2750     0.5790 ca         1 T6E      -0.071800
     10 CAO          2.8450    -1.5830     0.3330 ca         1 T6E      -0.072500
     11 CAM          1.4700    -1.8430     0.2090 ca         1 T6E      -0.155000
     12 CAN          2.3630     0.7630     0.7170 ca         1 T6E      -0.072500
     13 CAL          0.9860     0.5030     0.5930 ca         1 T6E      -0.155000
     14 CAX          0.5260    -0.8060     0.3340 ca         1 T6E      -0.002000
     15 NAT         -0.8480    -1.1490     0.1970 ns         1 T6E      -0.156000
     16 CAV         -2.0100    -0.3900     0.2300 c          1 T6E       0.668100
     17 OAD         -2.0400     0.8240     0.3910 o          1 T6E      -0.597100
     18 NAU         -3.1370    -1.1810     0.0530 ns         1 T6E      -0.169000
     19 CAY         -4.5320    -0.8810     0.0120 ca         1 T6E      -0.062000
     20 CAP         -5.0560     0.4200     0.1990 ca         1 T6E      -0.038000
     21 CAJ         -5.4300    -1.9420    -0.2230 ca         1 T6E       0.158000
     22 CAH         -6.8130    -1.7190    -0.2700 ca         1 T6E      -0.140000
     23 CAK         -7.3250    -0.4250    -0.0850 ca         1 T6E      -0.048000
     24 CBA         -6.4480     0.6570     0.1450 ca         1 T6E      -0.195300
     25 CBG         -6.9850     2.0780     0.3600 c3         1 T6E       0.361300
     26 FAF         -6.2500     2.9990    -0.3050 f          1 T6E      -0.110667
     27 FAG         -8.2620     2.2270    -0.0610 f          1 T6E      -0.110667
     28 FAE         -6.9580     2.4190     1.6670 f          1 T6E      -0.110667
     29 F1          -4.9620    -3.1980    -0.4030 f          1 T6E      -0.176000
     30 S            6.9720     0.7050     1.9500 ss         1 T6E      -0.091900
     31 C8           5.1920     0.5300     1.9090 cd         1 T6E      -0.184400
     32 HBF1         3.7340    -0.7520    -1.7600 hn         1 T6E       0.504000
     33 HBF2         4.6270    -1.1310    -3.1980 hn         1 T6E       0.504000
     34 H2           8.9540    -0.7170    -2.2260 h5         1 T6E       0.047100
     35 H8           4.6030     0.8050     2.7770 h4         1 T6E       0.222000
     36 HAO          3.5600    -2.3980     0.2420 ha         1 T6E       0.125500
     37 HAN          2.7030     1.7780     0.9150 ha         1 T6E       0.125500
     38 HAM          1.1380    -2.8610     0.0160 ha         1 T6E       0.133000
     39 HAL          0.2980     1.3350     0.7040 ha         1 T6E       0.133000
     40 HAT         -1.0040    -2.1370     0.0490 hn         1 T6E       0.150000
     41 HAU         -2.9350    -2.1650    -0.0730 hn         1 T6E       0.160000
     42 HAP         -4.3970     1.2620     0.3910 ha         1 T6E       0.155000
     43 HAH         -7.4880    -2.5510    -0.4480 ha         1 T6E       0.142000
     44 HAK         -8.4030    -0.2740    -0.1190 ha         1 T6E       0.139000
@<TRIPOS>BOND
     1     1     2 ar  
     2     1     5 ar  
     3     1     6 1   
     4     2     3 ar  
     5     2     8 1   
     6     3     4 ar  
     7     3    30 1   
     8     4     7 ar  
     9     5     7 ar  
    10     6    32 1   
    11     6    33 1   
    12     7    34 1   
    13     8     9 1   
    14     8    31 2   
    15     9    10 ar  
    16     9    12 ar  
    17    10    11 ar  
    18    10    36 1   
    19    11    14 ar  
    20    11    38 1   
    21    12    13 ar  
    22    12    37 1   
    23    13    14 ar  
    24    13    39 1   
    25    14    15 1   
    26    15    16 1   
    27    15    40 1   
    28    16    17 2   
    29    16    18 1   
    30    18    19 1   
    31    18    41 1   
    32    19    20 ar  
    33    19    21 ar  
    34    20    24 ar  
    35    20    42 1   
    36    21    22 ar  
    37    21    29 1   
    38    22    23 ar  
    39    22    43 1   
    40    23    24 ar  
    41    23    44 1   
    42    24    25 1   
    43    25    26 1   
    44    25    27 1   
    45    25    28 1   
    46    30    31 1   
    47    31    35 1   
@<TRIPOS>SUBSTRUCTURE
     1 T6E         1 TEMP              0 ****  ****    0 ROOT
