@<TRIPOS>MOLECULE
T6E
   44    47     1     0     0
SMALL
abcg2


@<TRIPOS>ATOM
      1 C4           5.6310    -0.9250    -1.4850 ca         1 T6E       0.432900
      2 C5           5.6270    -0.1740    -0.2770 ca         1 T6E      -0.233800
      3 C6           6.8760     0.3160     0.1030 ca         1 T6E       0.162300
      4 N1           8.0300     0.0870    -0.5220 nb         1 T6E      -0.191000
      5 N3           6.7880    -1.1720    -2.1030 nb         1 T6E      -0.291000
      6 NBF          4.5230    -1.4060    -2.0550 nv         1 T6E      -1.072900
      7 C2           7.9050    -0.6710    -1.5920 ca         1 T6E       0.175900
      8 CBB          4.5750     0.2450     0.6130 cc         1 T6E       0.011600
      9 CAZ          3.1570    -0.1460     0.5400 ca         1 T6E      -0.071800
     10 CAO          2.7770    -1.4880     0.5930 ca         1 T6E      -0.072500
     11 CAM          1.4440    -1.8500     0.5590 ca         1 T6E      -0.155000
     12 CAN          2.1500     0.8110     0.4660 ca         1 T6E      -0.072500
     13 CAL          0.8070     0.4630     0.4370 ca         1 T6E      -0.155000
     14 CAX          0.4380    -0.8820     0.4780 ca         1 T6E      -0.002000
     15 NAT         -0.8750    -1.3500     0.4580 ns         1 T6E      -0.156000
     16 CAV         -2.0250    -0.6420     0.2610 c          1 T6E       0.668100
     17 OAD         -2.0740     0.5620     0.0910 o          1 T6E      -0.597100
     18 NAU         -3.1440    -1.4380     0.2830 ns         1 T6E      -0.169000
     19 CAY         -4.4300    -0.9620     0.0250 ca         1 T6E      -0.062000
     20 CAP         -4.9360     0.1980     0.5970 ca         1 T6E      -0.038000
     21 CAJ         -5.2700    -1.6870    -0.8170 ca         1 T6E       0.158000
     22 CAH         -6.5600    -1.2950    -1.0950 ca         1 T6E      -0.140000
     23 CAK         -7.0440    -0.1220    -0.5360 ca         1 T6E      -0.048000
     24 CBA         -6.2290     0.6190     0.3080 ca         1 T6E      -0.195300
     25 CBG         -6.7090     1.9020     0.9070 c3         1 T6E       0.361300
     26 FAF         -6.1330     2.9640     0.3230 f          1 T6E      -0.110667
     27 FAG         -8.0300     2.0620     0.7860 f          1 T6E      -0.110667
     28 FAE         -6.4200     1.9870     2.2130 f          1 T6E      -0.110667
     29 F1          -4.7950    -2.8110    -1.3650 f          1 T6E      -0.176000
     30 S            6.7610     1.3090     1.5130 ss         1 T6E      -0.091900
     31 C8           5.0570     1.0470     1.5970 cd         1 T6E      -0.184400
     32 HBF1         3.6040    -1.1770    -1.7220 hn         1 T6E       0.504000
     33 HBF2         4.5960    -1.8700    -2.9450 hn         1 T6E       0.504000
     34 H2           8.8180    -0.9060    -2.1290 h5         1 T6E       0.047100
     35 H8           4.4910     1.4830     2.4060 h4         1 T6E       0.222000
     36 HAO          3.5290    -2.2630     0.6720 ha         1 T6E       0.125500
     37 HAN          2.4140     1.8600     0.4210 ha         1 T6E       0.125500
     38 HAM          1.1810    -2.9000     0.6030 ha         1 T6E       0.133000
     39 HAL          0.0670     1.2430     0.3810 ha         1 T6E       0.133000
     40 HAT         -0.9620    -2.3500     0.5590 hn         1 T6E       0.150000
     41 HAU         -3.0260    -2.4400     0.2850 hn         1 T6E       0.160000
     42 HAP         -4.3150     0.7600     1.2790 ha         1 T6E       0.155000
     43 HAH         -7.1750    -1.8900    -1.7560 ha         1 T6E       0.142000
     44 HAK         -8.0520     0.1890    -0.7680 ha         1 T6E       0.139000
@<TRIPOS>BOND
     1     1     2 ar  
     2     1     5 ar  
     3     1     6 1   
     4     2     3 ar  
     5     2     8 1   
     6     3     4 ar  
     7     3    30 1   
     8     4     7 ar  
     9     5     7 ar  
    10     6    32 1   
    11     6    33 1   
    12     7    34 1   
    13     8     9 1   
    14     8    31 2   
    15     9    10 ar  
    16     9    12 ar  
    17    10    11 ar  
    18    10    36 1   
    19    11    14 ar  
    20    11    38 1   
    21    12    13 ar  
    22    12    37 1   
    23    13    14 ar  
    24    13    39 1   
    25    14    15 1   
    26    15    16 1   
    27    15    40 1   
    28    16    17 2   
    29    16    18 1   
    30    18    19 1   
    31    18    41 1   
    32    19    20 ar  
    33    19    21 ar  
    34    20    24 ar  
    35    20    42 1   
    36    21    22 ar  
    37    21    29 1   
    38    22    23 ar  
    39    22    43 1   
    40    23    24 ar  
    41    23    44 1   
    42    24    25 1   
    43    25    26 1   
    44    25    27 1   
    45    25    28 1   
    46    30    31 1   
    47    31    35 1   
@<TRIPOS>SUBSTRUCTURE
     1 T6E         1 TEMP              0 ****  ****    0 ROOT
