@<TRIPOS>MOLECULE
T6H
   33    33     1     0     0
SMALL
bcc


@<TRIPOS>ATOM
      1 C1          15.5520    20.2070     0.1910 c3         1 T6H       0.092800
      2 N           17.2100    20.1250    -1.5940 ns         1 T6H      -0.570900
      3 C2          17.3560    21.2310     1.4820 ca         1 T6H       0.134100
      4 C3          17.6950    22.3960     2.1710 ca         1 T6H      -0.186000
      5 C4          18.8030    22.4230     3.0000 ca         1 T6H      -0.097500
      6 C           15.0510    19.3300     1.3310 c3         1 T6H      -0.096600
      7 O           16.2830    21.3400     0.6600 os         1 T6H      -0.343900
      8 C10         18.0030    19.5410    -2.6510 c3         1 T6H       0.103000
      9 C11         19.2880    18.9000    -2.1510 c3         1 T6H       0.010700
     10 C5          19.5890    21.2880     3.1660 ca         1 T6H      -0.156000
     11 C6          19.2470    20.1310     2.4860 ca         1 T6H      -0.097500
     12 C7          18.1400    20.0900     1.6460 ca         1 T6H      -0.186000
     13 C8          14.3580    20.8040    -0.5530 c3         1 T6H      -0.096600
     14 C9          16.3750    19.4030    -0.8330 c          1 T6H       0.639100
     15 O1          16.2100    18.2010    -0.9690 o          1 T6H      -0.600100
     16 S           20.4740    20.0920    -1.4550 sh         1 T6H      -0.423900
     17 H1          17.2880    21.1170    -1.4370 hn         1 T6H       0.335500
     18 H2          17.0850    23.2820     2.0430 ha         1 T6H       0.143000
     19 H3          19.0480    23.3360     3.5260 ha         1 T6H       0.133500
     20 H4          14.5160    19.9480     2.0520 hc         1 T6H       0.055367
     21 H5          14.3530    18.5890     0.9490 hc         1 T6H       0.055367
     22 H6          15.8400    18.7970     1.8580 hc         1 T6H       0.055367
     23 H7          18.2340    20.3280    -3.3680 h1         1 T6H       0.064700
     24 H8          17.4110    18.7890    -3.1750 h1         1 T6H       0.064700
     25 H9          19.0810    18.1260    -1.4130 h1         1 T6H       0.080200
     26 H10         19.8030    18.4230    -2.9860 h1         1 T6H       0.080200
     27 H11         20.4560    21.3090     3.8120 ha         1 T6H       0.136000
     28 H12         19.8490    19.2380     2.5940 ha         1 T6H       0.133500
     29 H13         17.9230    19.1620     1.1350 ha         1 T6H       0.143000
     30 H14         13.7070    21.3340     0.1420 hc         1 T6H       0.055367
     31 H15         14.6760    21.4970    -1.3330 hc         1 T6H       0.055367
     32 H16         13.7760    20.0110    -1.0230 hc         1 T6H       0.055367
     33 H17         19.8580    20.2920    -0.2820 hs         1 T6H       0.226800
@<TRIPOS>BOND
     1     1     6 1   
     2     1     7 1   
     3     1    13 1   
     4     1    14 1   
     5     2     8 1   
     6     2    14 1   
     7     2    17 1   
     8     3     4 ar  
     9     3     7 1   
    10     3    12 ar  
    11     4     5 ar  
    12     4    18 1   
    13     5    10 ar  
    14     5    19 1   
    15     6    20 1   
    16     6    21 1   
    17     6    22 1   
    18     8     9 1   
    19     8    23 1   
    20     8    24 1   
    21     9    16 1   
    22     9    25 1   
    23     9    26 1   
    24    10    11 ar  
    25    10    27 1   
    26    11    12 ar  
    27    11    28 1   
    28    12    29 1   
    29    13    30 1   
    30    13    31 1   
    31    13    32 1   
    32    14    15 2   
    33    16    33 1   
@<TRIPOS>SUBSTRUCTURE
     1 T6H         1 TEMP              0 ****  ****    0 ROOT
