@<TRIPOS>MOLECULE
T6H
   33    33     1     0     0
SMALL
No Charge or Current Charge


@<TRIPOS>ATOM
      1 C1          15.4300    20.1620     0.1610 c3         1 T6H       0.116000
      2 N           17.2720    20.1410    -1.5240 ns         1 T6H      -0.503900
      3 C2          17.3220    21.2450     1.4540 ca         1 T6H       0.134100
      4 C3          17.7450    22.4380     2.0630 ca         1 T6H      -0.168000
      5 C4          18.9300    22.4790     2.8170 ca         1 T6H      -0.079500
      6 C           14.9740    19.2460     1.3340 c3         1 T6H      -0.096600
      7 O           16.1450    21.3010     0.7230 os         1 T6H      -0.367100
      8 C10         18.1680    19.6420    -2.5750 c3         1 T6H       0.103000
      9 C11         19.3910    18.8890    -2.0130 c3         1 T6H       0.058600
     10 C5          19.7050    21.3180     2.9650 ca         1 T6H      -0.138000
     11 C6          19.2970    20.1200     2.3550 ca         1 T6H      -0.079500
     12 C7          18.1140    20.0810     1.5960 ca         1 T6H      -0.168000
     13 C8          14.1840    20.7870    -0.5120 c3         1 T6H      -0.096600
     14 C9          16.2570    19.4100    -0.9380 c          1 T6H       0.572100
     15 O1          16.0580    18.2400    -1.2430 o          1 T6H      -0.600100
     16 S           20.5130    19.9370    -0.9650 sh         1 T6H      -0.471800
     17 H1          17.3800    21.0950    -1.1970 hn         1 T6H       0.335500
     18 H2          17.1460    23.3380     1.9510 ha         1 T6H       0.125000
     19 H3          19.2460    23.4080     3.2870 ha         1 T6H       0.115500
     20 H4          14.5100    19.8390     2.1310 hc         1 T6H       0.055367
     21 H5          14.2320    18.5170     0.9840 hc         1 T6H       0.055367
     22 H6          15.8000    18.6770     1.7710 hc         1 T6H       0.055367
     23 H7          18.5140    20.4940    -3.1750 h1         1 T6H       0.064700
     24 H8          17.6060    18.9740    -3.2410 h1         1 T6H       0.064700
     25 H9          19.0460    18.0360    -1.4150 h1         1 T6H       0.080200
     26 H10         19.9780    18.4920    -2.8520 h1         1 T6H       0.080200
     27 H11         20.6230    21.3460     3.5480 ha         1 T6H       0.118000
     28 H12         19.9030    19.2230     2.4650 ha         1 T6H       0.115500
     29 H13         17.8420    19.1430     1.1270 ha         1 T6H       0.125000
     30 H14         13.5830    21.3450     0.2160 hc         1 T6H       0.055367
     31 H15         14.4800    21.4760    -1.3120 hc         1 T6H       0.055367
     32 H16         13.5490    20.0090    -0.9540 hc         1 T6H       0.055367
     33 H17         19.5950    20.2320    -0.0090 hs         1 T6H       0.226800
@<TRIPOS>BOND
     1     1     6 1   
     2     1     7 1   
     3     1    13 1   
     4     1    14 1   
     5     2     8 1   
     6     2    14 1   
     7     2    17 1   
     8     3     4 ar  
     9     3     7 1   
    10     3    12 ar  
    11     4     5 ar  
    12     4    18 1   
    13     5    10 ar  
    14     5    19 1   
    15     6    20 1   
    16     6    21 1   
    17     6    22 1   
    18     8     9 1   
    19     8    23 1   
    20     8    24 1   
    21     9    16 1   
    22     9    25 1   
    23     9    26 1   
    24    10    11 ar  
    25    10    27 1   
    26    11    12 ar  
    27    11    28 1   
    28    12    29 1   
    29    13    30 1   
    30    13    31 1   
    31    13    32 1   
    32    14    15 2   
    33    16    33 1   
@<TRIPOS>SUBSTRUCTURE
     1 T6H         1 TEMP              0 ****  ****    0 ROOT
