@<TRIPOS>MOLECULE
T6I
   53    55     1     0     0
SMALL
abcg2


@<TRIPOS>ATOM
      1 C1          17.1940    65.3140    26.2260 c3         1 T6I      -0.203700
      2 C2          17.1500    64.0450    27.1140 c3         1 T6I       0.174000
      3 C3          17.2070    64.9030    24.7330 c          1 T6I       0.713000
      4 C6          16.8680    64.3890    28.5640 ca         1 T6I      -0.069300
      5 C7          12.7800    63.1580    27.2980 ca         1 T6I      -0.093000
      6 C10         13.4510    61.9950    27.6470 ca         1 T6I      -0.112300
      7 C11         14.4650    61.4100    26.7000 c3         1 T6I       0.156600
      8 C12         17.8650    64.3160    29.5310 ca         1 T6I      -0.091500
      9 C13         15.5960    64.8080    28.9540 ca         1 T6I      -0.091500
     10 C14         12.4720    62.1350    29.8350 ca         1 T6I      -0.118000
     11 C16         13.2910    61.4770    28.9320 ca         1 T6I      -0.071000
     12 C17         15.3290    65.1370    30.2750 ca         1 T6I      -0.117000
     13 C18         17.5980    64.6530    30.8550 ca         1 T6I      -0.117000
     14 C19         16.3260    65.0630    31.2520 ca         1 T6I      -0.099300
     15 C20         16.0230    65.3870    32.6910 c3         1 T6I      -0.035800
     16 C21         18.3600    66.2130    26.6140 c3         1 T6I      -0.060100
     17 C23         11.9740    63.8420    28.2090 ca         1 T6I      -0.079300
     18 C24         11.8190    63.3250    29.5010 ca         1 T6I      -0.074300
     19 C25         10.9600    64.0220    30.5310 c6         1 T6I      -0.027100
     20 C26         10.7010    65.4890    30.1950 c6         1 T6I      -0.073400
     21 C27         10.2410    65.6210    28.7460 c6         1 T6I      -0.071400
     22 C28         11.3420    65.1540    27.7980 c6         1 T6I      -0.031100
     23 F22         14.4870    60.0140    26.7790 f          1 T6I      -0.255000
     24 N4          16.1180    63.1500    26.5930 ns         1 T6I      -0.490900
     25 O15         18.3110    64.7920    24.1550 o          1 T6I      -0.729500
     26 O8          16.0730    64.6720    24.2210 o          1 T6I      -0.729500
     27 O9          16.5380    61.3640    27.9390 o          1 T6I      -0.614100
     28 H1          16.2540    65.8470    26.3930 hc         1 T6I       0.038700
     29 H2          18.1200    63.5460    27.0510 h1         1 T6I       0.068700
     30 H4          14.2390    61.6760    25.6660 h1         1 T6I       0.077700
     31 H5          18.8590    63.9890    29.2490 ha         1 T6I       0.115500
     32 H6          14.8010    64.8650    28.2210 ha         1 T6I       0.115500
     33 H8          13.8150    60.5770    29.2240 ha         1 T6I       0.132000
     34 H9          14.3290    65.4520    30.5530 ha         1 T6I       0.096500
     35 H10         18.3910    64.5900    31.5920 ha         1 T6I       0.096500
     36 H11         15.5590    64.5330    33.1930 hc         1 T6I       0.030033
     37 H12         16.9310    65.6390    33.2390 hc         1 T6I       0.030033
     38 H13         15.3280    66.2250    32.7690 hc         1 T6I       0.030033
     39 H14         18.2780    66.5380    27.6520 hc         1 T6I       0.022367
     40 H15         19.3100    65.6910    26.4900 hc         1 T6I       0.022367
     41 H16         18.3820    67.1010    25.9810 hc         1 T6I       0.022367
     42 H17          9.9990    63.4980    30.6010 hc         1 T6I       0.041200
     43 H18         11.4290    63.9270    31.5140 hc         1 T6I       0.041200
     44 H19         11.6210    66.0670    30.3360 hc         1 T6I       0.038700
     45 H20          9.9560    65.9000    30.8800 hc         1 T6I       0.038700
     46 H21          9.9690    66.6530    28.5150 hc         1 T6I       0.036200
     47 H22          9.3420    65.0120    28.5980 hc         1 T6I       0.036200
     48 H23         12.1320    65.9150    27.7680 hc         1 T6I       0.052200
     49 H24         10.9650    65.0710    26.7750 hc         1 T6I       0.052200
     50 H25         15.5800    63.5060    25.8080 hn         1 T6I       0.367500
     51 C5          15.8420    61.9510    27.1160 c          1 T6I       0.581100
     52 H3          12.9110    63.5700    26.3020 ha         1 T6I       0.125000
     53 H7          12.3530    61.7350    30.8360 ha         1 T6I       0.103000
@<TRIPOS>BOND
     1     1     2 1   
     2     1     3 1   
     3     1    16 1   
     4     1    28 1   
     5     2     4 1   
     6     2    24 1   
     7     2    29 1   
     8     3    25 1   
     9     3    26 1   
    10     4     8 ar  
    11     4     9 ar  
    12     5     6 ar  
    13     5    17 ar  
    14     5    52 1   
    15     6     7 1   
    16     6    11 ar  
    17     7    23 1   
    18     7    30 1   
    19     7    51 1   
    20     8    13 ar  
    21     8    31 1   
    22     9    12 ar  
    23     9    32 1   
    24    10    11 ar  
    25    10    18 ar  
    26    10    53 1   
    27    11    33 1   
    28    12    14 ar  
    29    12    34 1   
    30    13    14 ar  
    31    13    35 1   
    32    14    15 1   
    33    15    36 1   
    34    15    37 1   
    35    15    38 1   
    36    16    39 1   
    37    16    40 1   
    38    16    41 1   
    39    17    18 ar  
    40    17    22 1   
    41    18    19 1   
    42    19    20 1   
    43    19    42 1   
    44    19    43 1   
    45    20    21 1   
    46    20    44 1   
    47    20    45 1   
    48    21    22 1   
    49    21    46 1   
    50    21    47 1   
    51    22    48 1   
    52    22    49 1   
    53    24    50 1   
    54    24    51 1   
    55    27    51 2   
@<TRIPOS>SUBSTRUCTURE
     1 T6I         1 TEMP              0 ****  ****    0 ROOT
