@<TRIPOS>MOLECULE
T6I
   53    55     1     0     0
SMALL
No Charge or Current Charge


@<TRIPOS>ATOM
      1 C1          17.3090    65.3770    26.3900 c3         1 T6I      -0.203700
      2 C2          17.1660    64.0790    27.2250 c3         1 T6I       0.174000
      3 C3          17.2950    65.0590    24.8820 c          1 T6I       0.713000
      4 C6          17.1380    64.3400    28.7320 ca         1 T6I      -0.069300
      5 C7          12.3210    63.0030    27.1250 ca         1 T6I      -0.093000
      6 C10         13.3780    62.2500    27.6730 ca         1 T6I      -0.112300
      7 C11         14.3430    61.4860    26.7630 c3         1 T6I       0.156600
      8 C12         18.1920    63.8870    29.5490 ca         1 T6I      -0.091500
      9 C13         16.0500    65.0120    29.3280 ca         1 T6I      -0.091500
     10 C14         12.7150    62.9860    29.9020 ca         1 T6I      -0.118000
     11 C16         13.5660    62.2430    29.0690 ca         1 T6I      -0.071000
     12 C17         16.0190    65.2280    30.7160 ca         1 T6I      -0.117000
     13 C18         18.1620    64.1060    30.9370 ca         1 T6I      -0.117000
     14 C19         17.0760    64.7780    31.5280 ca         1 T6I      -0.099300
     15 C20         17.0400    65.0070    33.0310 c3         1 T6I      -0.035800
     16 C21         18.5670    66.1980    26.7720 c3         1 T6I      -0.060100
     17 C23         11.4590    63.7450    27.9550 ca         1 T6I      -0.079300
     18 C24         11.6640    63.7460    29.3560 ca         1 T6I      -0.074300
     19 C25         10.7520    64.5380    30.3000 c6         1 T6I      -0.027100
     20 C26          9.9050    65.6120    29.5820 c6         1 T6I      -0.073400
     21 C27          9.2530    65.0270    28.3140 c6         1 T6I      -0.071400
     22 C28         10.3350    64.5670    27.3110 c6         1 T6I      -0.031100
     23 F22         14.2160    60.1410    26.9390 f          1 T6I      -0.255000
     24 N4          15.9630    63.3440    26.8450 ns         1 T6I      -0.490900
     25 O15         18.1990    64.3820    24.4160 o          1 T6I      -0.729500
     26 O8          16.3820    65.5150    24.2090 o          1 T6I      -0.729500
     27 O9          16.7360    61.2450    27.2790 o          1 T6I      -0.614100
     28 H1          16.4370    66.0070    26.6030 hc         1 T6I       0.038700
     29 H2          18.0340    63.4450    26.9980 h1         1 T6I       0.068700
     30 H4          14.0960    61.7040    25.7170 h1         1 T6I       0.077700
     31 H5          19.0360    63.3610    29.1090 ha         1 T6I       0.115500
     32 H6          15.2210    65.3630    28.7170 ha         1 T6I       0.115500
     33 H8          14.3780    61.6690    29.5110 ha         1 T6I       0.132000
     34 H9          15.1700    65.7420    31.1600 ha         1 T6I       0.096500
     35 H10         18.9830    63.7480    31.5540 ha         1 T6I       0.096500
     36 H11         16.5360    64.1770    33.5400 hc         1 T6I       0.030033
     37 H12         18.0510    65.0920    33.4480 hc         1 T6I       0.030033
     38 H13         16.5020    65.9300    33.2820 hc         1 T6I       0.030033
     39 H14         18.5170    66.5360    27.8140 hc         1 T6I       0.022367
     40 H15         19.4790    65.6010    26.6480 hc         1 T6I       0.022367
     41 H16         18.6510    67.0870    26.1350 hc         1 T6I       0.022367
     42 H17         10.0810    63.8350    30.8120 hc         1 T6I       0.041200
     43 H18         11.3510    65.0160    31.0880 hc         1 T6I       0.041200
     44 H19         10.5410    66.4660    29.3100 hc         1 T6I       0.038700
     45 H20          9.1340    65.9970    30.2630 hc         1 T6I       0.038700
     46 H21          8.6000    65.7740    27.8430 hc         1 T6I       0.036200
     47 H22          8.6130    64.1760    28.5860 hc         1 T6I       0.036200
     48 H23         10.7780    65.4500    26.8300 hc         1 T6I       0.052200
     49 H24          9.8600    63.9890    26.5060 hc         1 T6I       0.052200
     50 H25         15.1360    63.8780    26.6080 hn         1 T6I       0.367500
     51 C5          15.8010    61.9810    26.9780 c          1 T6I       0.581100
     52 H3          12.1700    63.0190    26.0470 ha         1 T6I       0.125000
     53 H7          12.8760    62.9740    30.9770 ha         1 T6I       0.103000
@<TRIPOS>BOND
     1     1     2 1   
     2     1     3 1   
     3     1    16 1   
     4     1    28 1   
     5     2     4 1   
     6     2    24 1   
     7     2    29 1   
     8     3    25 1   
     9     3    26 1   
    10     4     8 ar  
    11     4     9 ar  
    12     5     6 ar  
    13     5    17 ar  
    14     5    52 1   
    15     6     7 1   
    16     6    11 ar  
    17     7    23 1   
    18     7    30 1   
    19     7    51 1   
    20     8    13 ar  
    21     8    31 1   
    22     9    12 ar  
    23     9    32 1   
    24    10    11 ar  
    25    10    18 ar  
    26    10    53 1   
    27    11    33 1   
    28    12    14 ar  
    29    12    34 1   
    30    13    14 ar  
    31    13    35 1   
    32    14    15 1   
    33    15    36 1   
    34    15    37 1   
    35    15    38 1   
    36    16    39 1   
    37    16    40 1   
    38    16    41 1   
    39    17    18 ar  
    40    17    22 1   
    41    18    19 1   
    42    19    20 1   
    43    19    42 1   
    44    19    43 1   
    45    20    21 1   
    46    20    44 1   
    47    20    45 1   
    48    21    22 1   
    49    21    46 1   
    50    21    47 1   
    51    22    48 1   
    52    22    49 1   
    53    24    50 1   
    54    24    51 1   
    55    27    51 2   
@<TRIPOS>SUBSTRUCTURE
     1 T6I         1 TEMP              0 ****  ****    0 ROOT
