@<TRIPOS>MOLECULE
T6J
   24    25     1     0     0
SMALL
No Charge or Current Charge


@<TRIPOS>ATOM
      1 N1          -0.5920     1.0810    -0.4010 na         1 T6J      -0.304600
      2 C4          -3.0710    -1.4420    -0.1230 ca         1 T6J      -0.042000
      3 C5          -4.2290    -0.7390     0.2800 ca         1 T6J      -0.136000
      4 C6          -4.1840     0.6620     0.4720 ca         1 T6J      -0.087000
      5 C7          -2.9810     1.3670     0.2630 ca         1 T6J      -0.115000
      6 C8          -1.8550     0.6340    -0.1350 ca         1 T6J      -0.067200
      7 N           -0.6490    -1.2050    -0.7160 nc         1 T6J      -0.543100
      8 C            4.2680     0.0620    -0.5060 c3         1 T6J      -0.339100
      9 O            2.4250     1.4950     0.7250 o          1 T6J      -0.506500
     10 C2           0.1000    -0.0890    -0.7330 cd         1 T6J       0.408800
     11 C3          -1.8850    -0.7200    -0.3240 ca         1 T6J       0.064400
     12 O1           2.4990    -1.0070     1.1360 o          1 T6J      -0.506500
     13 S            2.6310     0.1320     0.2200 s6         1 T6J       1.081000
     14 H9          -0.2290     2.0250    -0.3670 hn         1 T6J       0.370000
     15 H5          -3.0960    -2.5180    -0.2740 ha         1 T6J       0.130000
     16 H6          -5.1590    -1.2790     0.4420 ha         1 T6J       0.115000
     17 H7          -5.0790     1.1970     0.7820 ha         1 T6J       0.114000
     18 H8          -2.9310     2.4440     0.4050 ha         1 T6J       0.120000
     19 H1           4.9920     0.2150     0.3010 h1         1 T6J       0.106367
     20 H            4.3890    -0.9250    -0.9630 h1         1 T6J       0.106367
     21 H2           4.3360     0.8590    -1.2540 h1         1 T6J       0.106367
     22 H4           1.7770    -1.0910    -1.5880 h1         1 T6J       0.113700
     23 H3           1.7270     0.6770    -1.8770 h1         1 T6J       0.113700
     24 C1           1.5240    -0.1190    -1.1530 c3         1 T6J      -0.301700
@<TRIPOS>BOND
     1     1     6 1   
     2     1    10 1   
     3     1    14 1   
     4     2     3 ar  
     5     2    11 ar  
     6     2    15 1   
     7     3     4 ar  
     8     3    16 1   
     9     4     5 ar  
    10     4    17 1   
    11     5     6 ar  
    12     5    18 1   
    13     6    11 ar  
    14     7    10 2   
    15     7    11 1   
    16     8    13 1   
    17     8    19 1   
    18     8    20 1   
    19     8    21 1   
    20     9    13 2   
    21    10    24 1   
    22    12    13 2   
    23    13    24 1   
    24    22    24 1   
    25    23    24 1   
@<TRIPOS>SUBSTRUCTURE
     1 T6J         1 TEMP              0 ****  ****    0 ROOT
