@<TRIPOS>MOLECULE
T6J
   24    25     1     0     0
SMALL
bcc


@<TRIPOS>ATOM
      1 N1          -0.5630     1.0190    -0.4820 na         1 T6J      -0.254300
      2 C4          -3.0510    -1.4440    -0.1020 ca         1 T6J      -0.060000
      3 C5          -4.1540    -0.7330     0.3290 ca         1 T6J      -0.154000
      4 C6          -4.1010     0.6590     0.5170 ca         1 T6J      -0.105000
      5 C7          -2.9450     1.3790     0.2800 ca         1 T6J      -0.133000
      6 C8          -1.8400     0.6550    -0.1530 ca         1 T6J      -0.067200
      7 N           -0.6460    -1.1810    -0.7730 nc         1 T6J      -0.543100
      8 C            4.2080     0.0670    -0.4290 c3         1 T6J      -0.228300
      9 O            2.2930     1.4720     0.7330 o          1 T6J      -0.577300
     10 C2           0.0960    -0.1120    -0.8420 cd         1 T6J       0.408800
     11 C3          -1.8730    -0.7370    -0.3460 ca         1 T6J       0.064400
     12 O1           2.3360    -1.0070     1.0980 o          1 T6J      -0.577300
     13 S            2.5530     0.1310     0.2120 s6         1 T6J       1.001000
     14 H9          -0.1790     1.9510    -0.4620 hn         1 T6J       0.319700
     15 H5          -3.0950    -2.5160    -0.2460 ha         1 T6J       0.148000
     16 H6          -5.0820    -1.2540     0.5290 ha         1 T6J       0.133000
     17 H7          -4.9880     1.1780     0.8560 ha         1 T6J       0.132000
     18 H8          -2.9060     2.4510     0.4240 ha         1 T6J       0.138000
     19 H1           4.8810     0.2290     0.4120 h1         1 T6J       0.106367
     20 H            4.3880    -0.9110    -0.8670 h1         1 T6J       0.106367
     21 H2           4.3430     0.8520    -1.1700 h1         1 T6J       0.106367
     22 H4           1.7900    -1.0500    -1.7070 h1         1 T6J       0.113700
     23 H3           1.7450     0.7150    -1.9460 h1         1 T6J       0.113700
     24 C1           1.5200    -0.0980    -1.2540 c3         1 T6J      -0.190900
@<TRIPOS>BOND
     1     1     6 1   
     2     1    10 1   
     3     1    14 1   
     4     2     3 ar  
     5     2    11 ar  
     6     2    15 1   
     7     3     4 ar  
     8     3    16 1   
     9     4     5 ar  
    10     4    17 1   
    11     5     6 ar  
    12     5    18 1   
    13     6    11 ar  
    14     7    10 2   
    15     7    11 1   
    16     8    13 1   
    17     8    19 1   
    18     8    20 1   
    19     8    21 1   
    20     9    13 2   
    21    10    24 1   
    22    12    13 2   
    23    13    24 1   
    24    22    24 1   
    25    23    24 1   
@<TRIPOS>SUBSTRUCTURE
     1 T6J         1 TEMP              0 ****  ****    0 ROOT
