@<TRIPOS>MOLECULE
T6K
   59    61     1     0     0
SMALL
abcg2


@<TRIPOS>ATOM
      1 C01         -6.5990    -1.9780     0.8640 c          1 T6K       0.535100
      2 C02         -5.3270    -2.4170     0.1530 c6         1 T6K       0.105300
      3 C03         -5.5950    -2.6510    -1.3330 c3         1 T6K      -0.114100
      4 O04         -4.2470    -1.5380     0.3870 os         1 T6K      -0.437000
      5 C05         -4.5090    -0.1660     0.2330 c6         1 T6K       0.472300
      6 O06         -3.3240     0.4910     0.5100 os         1 T6K      -0.528400
      7 P07         -2.5020     1.1740    -0.7630 p5         1 T6K       1.453800
      8 O08         -2.2240     0.1220    -1.7860 o          1 T6K      -0.843500
      9 O09         -3.1790     2.4530    -1.1390 o          1 T6K      -0.843500
     10 O10         -1.1720     1.4670     0.1460 os         1 T6K      -0.682800
     11 P11         -0.0510     2.6100    -0.2280 p5         1 T6K       1.456800
     12 O12          0.1240     2.7090    -1.7110 o          1 T6K      -0.850500
     13 O13         -0.2940     3.8360     0.5920 o          1 T6K      -0.850500
     14 O14          1.1940     1.7550     0.4250 os         1 T6K      -0.567400
     15 C15          2.4990     2.2480     0.2070 c3         1 T6K       0.230600
     16 C16          3.4420     1.6510     1.2220 c5         1 T6K       0.166300
     17 O17          3.5220     0.2520     1.0410 os         1 T6K      -0.411000
     18 C18          4.8080    -0.2310     1.3490 c5         1 T6K       0.356700
     19 C19          5.7060     0.9970     1.5590 c5         1 T6K      -0.157400
     20 C20          4.8680     2.1850     1.0900 c5         1 T6K       0.124300
     21 O21          4.9980     3.3480     1.8710 oh         1 T6K      -0.702000
     22 N22          5.2160    -1.1850     0.3390 n          1 T6K      -0.423800
     23 C23          5.5280    -2.5550     0.7130 c6         1 T6K       0.119000
     24 C24          4.9520    -3.5340    -0.2940 c6         1 T6K      -0.162700
     25 C25          3.4220    -3.5630    -0.2800 c3         1 T6K      -0.089100
     26 C26          5.4430    -3.1680    -1.6690 c          1 T6K       0.586000
     27 O27          5.6110    -3.9580    -2.5720 o          1 T6K      -0.551000
     28 N28          5.6540    -1.8250    -1.8470 ns         1 T6K      -0.487500
     29 C29          5.3800    -0.7960    -0.9430 c          1 T6K       0.631000
     30 O30          5.3140     0.3500    -1.3430 o          1 T6K      -0.547000
     31 C31         -5.5840     0.2690     1.2220 c6         1 T6K       0.127300
     32 O32         -5.1460    -0.0680     2.5120 oh         1 T6K      -0.668000
     33 C33         -6.8790    -0.4800     0.9200 c6         1 T6K       0.025300
     34 O34         -7.3530    -0.0660    -0.3410 oh         1 T6K      -0.630000
     35 O35         -7.3880    -2.7880     1.2890 o          1 T6K      -0.564100
     36 H1          -5.0280    -3.3700     0.5980 h1         1 T6K       0.069700
     37 H2          -5.9260    -1.7520    -1.8490 hc         1 T6K       0.045033
     38 H3          -4.6870    -3.0120    -1.8150 hc         1 T6K       0.045033
     39 H4          -6.3650    -3.4120    -1.4590 hc         1 T6K       0.045033
     40 H5          -4.8680     0.0490    -0.7840 h2         1 T6K       0.041700
     41 H8           2.8480     1.9990    -0.8010 h1         1 T6K       0.027700
     42 H9           2.5460     3.3390     0.3130 h1         1 T6K       0.027700
     43 H10          3.0780     1.8800     2.2360 h1         1 T6K       0.067700
     44 H11          4.7710    -0.8120     2.2740 h2         1 T6K       0.040700
     45 H12          5.9050     1.1080     2.6270 hc         1 T6K       0.046700
     46 H13          6.6660     0.9110     1.0530 hc         1 T6K       0.046700
     47 H14          5.0850     2.4000     0.0400 h1         1 T6K       0.070700
     48 H15          5.8170     3.7850     1.6210 ho         1 T6K       0.485000
     49 H16          6.6110    -2.6920     0.7980 h1         1 T6K       0.042700
     50 H17          5.1010    -2.7510     1.6950 h1         1 T6K       0.042700
     51 H18          5.3320    -4.5300    -0.0620 hc         1 T6K       0.067700
     52 H19          2.9920    -2.5880    -0.5090 hc         1 T6K       0.060700
     53 H20          3.0370    -4.2820    -1.0020 hc         1 T6K       0.060700
     54 H21          3.0700    -3.8580     0.7090 hc         1 T6K       0.060700
     55 H22          5.8750    -1.5140    -2.7850 hn         1 T6K       0.330500
     56 H23         -5.7560     1.3470     1.1020 h1         1 T6K       0.074700
     57 H24         -5.7600     0.3080     3.1500 ho         1 T6K       0.467000
     58 H25         -7.6160    -0.2860     1.7110 h1         1 T6K       0.026700
     59 H26         -8.2540    -0.3820    -0.4570 ho         1 T6K       0.429000
@<TRIPOS>BOND
     1     1     2 1   
     2     1    33 1   
     3     1    35 2   
     4     2     3 1   
     5     2     4 1   
     6     2    36 1   
     7     3    37 1   
     8     3    38 1   
     9     3    39 1   
    10     4     5 1   
    11     5     6 1   
    12     5    31 1   
    13     5    40 1   
    14     6     7 1   
    15     7     8 1   
    16     7     9 1   
    17     7    10 1   
    18    10    11 1   
    19    11    12 1   
    20    11    13 1   
    21    11    14 1   
    22    14    15 1   
    23    15    16 1   
    24    15    41 1   
    25    15    42 1   
    26    16    17 1   
    27    16    20 1   
    28    16    43 1   
    29    17    18 1   
    30    18    19 1   
    31    18    22 1   
    32    18    44 1   
    33    19    20 1   
    34    19    45 1   
    35    19    46 1   
    36    20    21 1   
    37    20    47 1   
    38    21    48 1   
    39    22    23 1   
    40    22    29 1   
    41    23    24 1   
    42    23    49 1   
    43    23    50 1   
    44    24    25 1   
    45    24    26 1   
    46    24    51 1   
    47    25    52 1   
    48    25    53 1   
    49    25    54 1   
    50    26    27 2   
    51    26    28 1   
    52    28    29 1   
    53    28    55 1   
    54    29    30 2   
    55    31    32 1   
    56    31    33 1   
    57    31    56 1   
    58    32    57 1   
    59    33    34 1   
    60    33    58 1   
    61    34    59 1   
@<TRIPOS>SUBSTRUCTURE
     1 T6K         1 TEMP              0 ****  ****    0 ROOT
