@<TRIPOS>MOLECULE
T6K
   59    61     1     0     0
SMALL
No Charge or Current Charge


@<TRIPOS>ATOM
      1 C01         -4.3980    -2.7800    -0.0670 c          1 T6K       0.535100
      2 C02         -2.8890    -3.0840     0.1520 c6         1 T6K       0.105300
      3 C03         -2.1320    -3.3050    -1.1910 c3         1 T6K      -0.114100
      4 O04         -2.2310    -2.0460     0.9170 os         1 T6K      -0.437000
      5 C05         -2.3340    -0.7120     0.3630 c6         1 T6K       0.472300
      6 O06         -1.5390     0.1120     1.2210 os         1 T6K      -0.528400
      7 P07         -1.6490     1.7030     1.0870 p5         1 T6K       1.453800
      8 O08         -1.6730     2.0780    -0.3560 o          1 T6K      -0.843500
      9 O09         -2.8570     2.1440     1.8460 o          1 T6K      -0.843500
     10 O10         -0.2760     2.0350     1.7750 os         1 T6K      -0.682800
     11 P11         -0.1490     3.5530     2.1710 p5         1 T6K       1.456800
     12 O12         -0.6020     4.5350     1.1420 o          1 T6K      -0.850500
     13 O13         -0.7380     3.8280     3.5160 o          1 T6K      -0.850500
     14 O14          1.4580     3.6010     2.2880 os         1 T6K      -0.567400
     15 C15          2.2690     3.5220     1.1030 c3         1 T6K       0.230600
     16 C16          3.2020     2.2850     1.2060 c5         1 T6K       0.166300
     17 O17          2.4970     1.0610     0.9270 os         1 T6K      -0.411000
     18 C18          3.5030     0.0490     0.8020 c5         1 T6K       0.356700
     19 C19          4.7970     0.7520     0.2840 c5         1 T6K      -0.157400
     20 C20          4.3360     2.2310     0.1400 c5         1 T6K       0.124300
     21 O21          5.4060     3.1480     0.3940 oh         1 T6K      -0.702000
     22 N22          3.1360    -1.0220    -0.1510 n          1 T6K      -0.423800
     23 C23          3.5780    -2.3980     0.1480 c6         1 T6K       0.119000
     24 C24          2.5070    -3.4360    -0.2320 c6         1 T6K      -0.162700
     25 C25          1.3710    -3.4930     0.8340 c3         1 T6K      -0.089100
     26 C26          1.8870    -3.1170    -1.5970 c          1 T6K       0.586000
     27 O27          1.3950    -3.9770    -2.3090 o          1 T6K      -0.551000
     28 N28          1.9540    -1.8220    -2.0110 ns         1 T6K      -0.487500
     29 C29          2.4390    -0.7410    -1.3410 c          1 T6K       0.631000
     30 O30          2.2780     0.3780    -1.7970 o          1 T6K      -0.547000
     31 C31         -3.8590    -0.2730     0.2880 c6         1 T6K       0.127300
     32 O32         -4.4070    -0.0480     1.6100 oh         1 T6K      -0.668000
     33 C33         -4.7440    -1.3140    -0.4700 c6         1 T6K       0.025300
     34 O34         -4.5950    -1.1480    -1.9010 oh         1 T6K      -0.630000
     35 O35         -5.2670    -3.6400     0.0670 o          1 T6K      -0.564100
     36 H1          -2.8360    -4.0160     0.7330 h1         1 T6K       0.069700
     37 H2          -2.2180    -2.4540    -1.8760 hc         1 T6K       0.045033
     38 H3          -1.0670    -3.4850    -1.0130 hc         1 T6K       0.045033
     39 H4          -2.5280    -4.1830    -1.7160 hc         1 T6K       0.045033
     40 H5          -1.9020    -0.6890    -0.6480 h2         1 T6K       0.041700
     41 H8           1.6640     3.4410     0.1900 h1         1 T6K       0.027700
     42 H9           2.8860     4.4260     1.0180 h1         1 T6K       0.027700
     43 H10          3.6190     2.2390     2.2220 h1         1 T6K       0.067700
     44 H11          3.6810    -0.4200     1.7780 h2         1 T6K       0.040700
     45 H12          5.6020     0.6420     1.0190 hc         1 T6K       0.046700
     46 H13          5.1690     0.3440    -0.6640 hc         1 T6K       0.046700
     47 H14          3.9090     2.4040    -0.8590 h1         1 T6K       0.070700
     48 H15          6.1010     2.9740    -0.2820 ho         1 T6K       0.485000
     49 H16          4.4890    -2.5950    -0.4350 h1         1 T6K       0.042700
     50 H17          3.8430    -2.5000     1.2110 h1         1 T6K       0.042700
     51 H18          2.9320    -4.4480    -0.2720 hc         1 T6K       0.067700
     52 H19          0.8360    -2.5370     0.9060 hc         1 T6K       0.060700
     53 H20          0.6350    -4.2680     0.5900 hc         1 T6K       0.060700
     54 H21          1.7700    -3.7250     1.8280 hc         1 T6K       0.060700
     55 H22          1.5190    -1.6230    -2.8970 hn         1 T6K       0.330500
     56 H23         -3.9200     0.6610    -0.2890 h1         1 T6K       0.074700
     57 H24         -3.9520     0.7840     1.9270 ho         1 T6K       0.467000
     58 H25         -5.7960    -1.1470    -0.1940 h1         1 T6K       0.026700
     59 H26         -5.3240    -1.6480    -2.3360 ho         1 T6K       0.429000
@<TRIPOS>BOND
     1     1     2 1   
     2     1    33 1   
     3     1    35 2   
     4     2     3 1   
     5     2     4 1   
     6     2    36 1   
     7     3    37 1   
     8     3    38 1   
     9     3    39 1   
    10     4     5 1   
    11     5     6 1   
    12     5    31 1   
    13     5    40 1   
    14     6     7 1   
    15     7     8 1   
    16     7     9 1   
    17     7    10 1   
    18    10    11 1   
    19    11    12 1   
    20    11    13 1   
    21    11    14 1   
    22    14    15 1   
    23    15    16 1   
    24    15    41 1   
    25    15    42 1   
    26    16    17 1   
    27    16    20 1   
    28    16    43 1   
    29    17    18 1   
    30    18    19 1   
    31    18    22 1   
    32    18    44 1   
    33    19    20 1   
    34    19    45 1   
    35    19    46 1   
    36    20    21 1   
    37    20    47 1   
    38    21    48 1   
    39    22    23 1   
    40    22    29 1   
    41    23    24 1   
    42    23    49 1   
    43    23    50 1   
    44    24    25 1   
    45    24    26 1   
    46    24    51 1   
    47    25    52 1   
    48    25    53 1   
    49    25    54 1   
    50    26    27 2   
    51    26    28 1   
    52    28    29 1   
    53    28    55 1   
    54    29    30 2   
    55    31    32 1   
    56    31    33 1   
    57    31    56 1   
    58    32    57 1   
    59    33    34 1   
    60    33    58 1   
    61    34    59 1   
@<TRIPOS>SUBSTRUCTURE
     1 T6K         1 TEMP              0 ****  ****    0 ROOT
