@<TRIPOS>MOLECULE
T6L
   52    54     1     0     0
SMALL
abcg2


@<TRIPOS>ATOM
      1 C1          33.9370   -20.8790    21.8930 c3         1 T6L      -0.116100
      2 C2          33.5060   -22.2270    22.4540 c3         1 T6L       0.135000
      3 C4          31.0550   -22.4180    21.9970 c          1 T6L       0.582000
      4 C8          31.5920   -22.0650    24.1380 cc         1 T6L       0.375900
      5 C11         28.6020   -22.4800    22.4620 ca         1 T6L       0.539900
      6 O14         25.8530   -24.2020    23.8170 os         1 T6L      -0.482300
      7 C15         26.4830   -24.7630    24.9800 c3         1 T6L       0.126300
      8 C17         26.3870   -23.8200    26.1610 c3         1 T6L      -0.115100
      9 C18         25.7570   -26.0830    25.2130 c3         1 T6L       0.287000
     10 C23         26.7270   -22.0550    21.0440 ca         1 T6L      -0.027000
     11 C24         28.0560   -21.8570    21.3470 ca         1 T6L       0.089000
     12 C30         21.8500   -24.4600    20.7700 ca         1 T6L       0.188000
     13 C32         20.5030   -24.6560    20.5380 ca         1 T6L      -0.139000
     14 C33         19.6050   -24.4250    21.5740 ca         1 T6L      -0.084000
     15 C34         20.0580   -24.0060    22.8190 ca         1 T6L      -0.108000
     16 C35         21.4160   -23.7990    23.0140 ca         1 T6L       0.120000
     17 N3          32.1070   -22.2300    22.8750 n          1 T6L      -0.325300
     18 N6          29.9430   -22.3080    22.8220 n          1 T6L      -0.175300
     19 N7          30.2960   -22.1160    24.1470 n2         1 T6L      -0.453300
     20 C9          32.4090   -21.8640    25.3650 c3         1 T6L       0.145300
     21 O10         33.0940   -20.6160    25.2600 oh         1 T6L      -0.654000
     22 N12         27.8520   -23.2420    23.2500 nb         1 T6L      -0.756000
     23 C13         26.5780   -23.4260    22.9780 ca         1 T6L       0.625300
     24 F19         26.3040   -26.7350    26.2570 f          1 T6L      -0.106000
     25 F20         25.8400   -26.8950    24.1420 f          1 T6L      -0.106000
     26 F21         24.4470   -25.9170    25.4820 f          1 T6L      -0.106000
     27 C22         25.9340   -22.8580    21.8570 ca         1 T6L      -0.198600
     28 F25         28.7930   -21.0200    20.5980 f          1 T6L      -0.144000
     29 C26         24.4920   -22.9860    21.4640 c          1 T6L       0.634700
     30 O27         24.0480   -22.3500    20.5150 o          1 T6L      -0.578100
     31 N28         23.7230   -23.8280    22.2070 ns         1 T6L      -0.141000
     32 C29         22.3480   -24.0140    21.9930 ca         1 T6L      -0.066000
     33 CL36        21.9830   -23.2550    24.5700 cl         1 T6L      -0.196000
     34 H1          34.9800   -20.9320    21.5790 hc         1 T6L       0.054367
     35 H2          33.3320   -20.6080    21.0270 hc         1 T6L       0.054367
     36 H3          33.8390   -20.1010    22.6500 hc         1 T6L       0.054367
     37 H4          33.6120   -23.0120    21.7060 h1         1 T6L       0.059200
     38 H5          34.1080   -22.5040    23.3170 h1         1 T6L       0.059200
     39 H6          27.5180   -25.0100    24.7490 h1         1 T6L       0.107700
     40 H7          26.8330   -24.2760    27.0440 hc         1 T6L       0.066033
     41 H8          26.9330   -22.9070    25.9320 hc         1 T6L       0.066033
     42 H9          25.3470   -23.5710    26.3700 hc         1 T6L       0.066033
     43 H10         26.2880   -21.5660    20.1860 ha         1 T6L       0.174000
     44 H11         20.1760   -25.0000    19.5660 ha         1 T6L       0.139000
     45 H12         18.5470   -24.5800    21.4130 ha         1 T6L       0.125000
     46 H13         19.3670   -23.8310    23.6310 ha         1 T6L       0.135000
     47 H14         31.7290   -21.8800    26.2200 h1         1 T6L       0.054700
     48 H15         33.1180   -22.6900    25.4700 h1         1 T6L       0.054700
     49 H16         33.8440   -20.6320    25.8680 ho         1 T6L       0.453000
     50 H17         24.1250   -24.2040    23.0540 hn         1 T6L       0.186000
     51 O5          31.1030   -22.6620    20.8030 o          1 T6L      -0.523000
     52 F31         22.7250   -24.7410    19.7860 f          1 T6L      -0.160000
@<TRIPOS>BOND
     1     1     2 1   
     2     1    34 1   
     3     1    35 1   
     4     1    36 1   
     5     2    17 1   
     6     2    37 1   
     7     2    38 1   
     8     3    17 1   
     9     3    18 1   
    10     3    51 2   
    11     4    17 1   
    12     4    19 2   
    13     4    20 1   
    14     5    11 ar  
    15     5    18 1   
    16     5    22 ar  
    17     6     7 1   
    18     6    23 1   
    19     7     8 1   
    20     7     9 1   
    21     7    39 1   
    22     8    40 1   
    23     8    41 1   
    24     8    42 1   
    25     9    24 1   
    26     9    25 1   
    27     9    26 1   
    28    10    11 ar  
    29    10    27 ar  
    30    10    43 1   
    31    11    28 1   
    32    12    13 ar  
    33    12    32 ar  
    34    12    52 1   
    35    13    14 ar  
    36    13    44 1   
    37    14    15 ar  
    38    14    45 1   
    39    15    16 ar  
    40    15    46 1   
    41    16    32 ar  
    42    16    33 1   
    43    18    19 1   
    44    20    21 1   
    45    20    47 1   
    46    20    48 1   
    47    21    49 1   
    48    22    23 ar  
    49    23    27 ar  
    50    27    29 1   
    51    29    30 2   
    52    29    31 1   
    53    31    32 1   
    54    31    50 1   
@<TRIPOS>SUBSTRUCTURE
     1 T6L         1 TEMP              0 ****  ****    0 ROOT
