@<TRIPOS>MOLECULE
T6L
   52    54     1     0     0
SMALL
No Charge or Current Charge


@<TRIPOS>ATOM
      1 C1          34.1810   -21.1570    21.8900 c3         1 T6L      -0.116100
      2 C2          33.5470   -22.4540    22.4220 c3         1 T6L       0.135000
      3 C4          31.0660   -22.5190    22.1070 c          1 T6L       0.582000
      4 C8          31.7280   -21.8740    24.1380 cc         1 T6L       0.375900
      5 C11         28.6340   -22.3540    22.5260 ca         1 T6L       0.539900
      6 O14         25.8580   -24.3450    23.5490 os         1 T6L      -0.482300
      7 C15         26.2920   -24.9240    24.8070 c3         1 T6L       0.126300
      8 C17         26.0540   -23.8690    25.9160 c3         1 T6L      -0.115100
      9 C18         25.5040   -26.2480    25.0300 c3         1 T6L       0.287000
     10 C23         26.7820   -21.7420    21.1020 ca         1 T6L      -0.027000
     11 C24         28.1240   -21.5810    21.4640 ca         1 T6L       0.089000
     12 C30         21.8140   -24.4150    20.8120 ca         1 T6L       0.188000
     13 C32         20.4620   -24.7800    20.6950 ca         1 T6L      -0.139000
     14 C33         19.6080   -24.6950    21.8070 ca         1 T6L      -0.084000
     15 C34         20.1150   -24.2560    23.0410 ca         1 T6L      -0.108000
     16 C35         21.4670   -23.8930    23.1620 ca         1 T6L       0.120000
     17 N3          32.1580   -22.2660    22.8830 n          1 T6L      -0.325300
     18 N6          29.9990   -22.2460    22.9450 n          1 T6L      -0.175300
     19 N7          30.4170   -21.8460    24.2240 n2         1 T6L      -0.453300
     20 C9          32.6480   -21.5380    25.3030 c3         1 T6L       0.145300
     21 O10         33.1760   -20.1940    25.2380 oh         1 T6L      -0.654000
     22 N12         27.8810   -23.2470    23.2080 nb         1 T6L      -0.756000
     23 C13         26.5850   -23.3960    22.8680 ca         1 T6L       0.625300
     24 F19         25.8640   -26.8380    26.1930 f          1 T6L      -0.106000
     25 F20         25.7510   -27.1280    24.0320 f          1 T6L      -0.106000
     26 F21         24.1680   -26.0320    25.0690 f          1 T6L      -0.106000
     27 C22         25.9810   -22.6670    21.8140 ca         1 T6L      -0.198600
     28 F25         28.8950   -20.6790    20.8090 f          1 T6L      -0.144000
     29 C26         24.5300   -22.8200    21.4110 c          1 T6L       0.634700
     30 O27         24.1060   -22.2490    20.4110 o          1 T6L      -0.578100
     31 N28         23.6930   -23.5830    22.2110 ns         1 T6L      -0.141000
     32 C29         22.3290   -23.9510    22.0460 ca         1 T6L      -0.066000
     33 Cl36        22.0640   -23.3420    24.7270 cl         1 T6L      -0.196000
     34 H1          35.2070   -21.3460    21.5530 hc         1 T6L       0.054367
     35 H2          33.6060   -20.7680    21.0420 hc         1 T6L       0.054367
     36 H3          34.2130   -20.3880    22.6700 hc         1 T6L       0.054367
     37 H4          33.5630   -23.2120    21.6290 h1         1 T6L       0.059200
     38 H5          34.1540   -22.8410    23.2510 h1         1 T6L       0.059200
     39 H6          27.3590   -25.1860    24.7770 h1         1 T6L       0.107700
     40 H7          26.3240   -24.2740    26.8990 hc         1 T6L       0.066033
     41 H8          26.6670   -22.9770    25.7470 hc         1 T6L       0.066033
     42 H9          25.0020   -23.5640    25.9490 hc         1 T6L       0.066033
     43 H10         26.3760   -21.1470    20.2850 ha         1 T6L       0.174000
     44 H11         20.0820   -25.1390    19.7420 ha         1 T6L       0.139000
     45 H12         18.5610   -24.9790    21.7160 ha         1 T6L       0.125000
     46 H13         19.4600   -24.1980    23.9070 ha         1 T6L       0.135000
     47 H14         32.0800   -21.6720    26.2340 h1         1 T6L       0.054700
     48 H15         33.4660   -22.2690    25.3270 h1         1 T6L       0.054700
     49 H16         33.7160   -20.0540    26.0490 ho         1 T6L       0.453000
     50 H17         24.1240   -23.9420    23.0540 hn         1 T6L       0.186000
     51 O5          31.0400   -22.9040    20.9460 o          1 T6L      -0.523000
     52 F31         22.6190   -24.5720    19.7370 f          1 T6L      -0.160000
@<TRIPOS>BOND
     1     1     2 1   
     2     1    34 1   
     3     1    35 1   
     4     1    36 1   
     5     2    17 1   
     6     2    37 1   
     7     2    38 1   
     8     3    17 1   
     9     3    18 1   
    10     3    51 2   
    11     4    17 1   
    12     4    19 2   
    13     4    20 1   
    14     5    11 ar  
    15     5    18 1   
    16     5    22 ar  
    17     6     7 1   
    18     6    23 1   
    19     7     8 1   
    20     7     9 1   
    21     7    39 1   
    22     8    40 1   
    23     8    41 1   
    24     8    42 1   
    25     9    24 1   
    26     9    25 1   
    27     9    26 1   
    28    10    11 ar  
    29    10    27 ar  
    30    10    43 1   
    31    11    28 1   
    32    12    13 ar  
    33    12    32 ar  
    34    12    52 1   
    35    13    14 ar  
    36    13    44 1   
    37    14    15 ar  
    38    14    45 1   
    39    15    16 ar  
    40    15    46 1   
    41    16    32 ar  
    42    16    33 1   
    43    18    19 1   
    44    20    21 1   
    45    20    47 1   
    46    20    48 1   
    47    21    49 1   
    48    22    23 ar  
    49    23    27 ar  
    50    27    29 1   
    51    29    30 2   
    52    29    31 1   
    53    31    32 1   
    54    31    50 1   
@<TRIPOS>SUBSTRUCTURE
     1 T6L         1 TEMP              0 ****  ****    0 ROOT
