@<TRIPOS>MOLECULE
T6M
   34    35     1     0     0
SMALL
abcg2


@<TRIPOS>ATOM
      1 N1          -1.2540    -1.3020    -0.0060 n3         1 T6M      -0.710500
      2 C4          -1.5700    -0.5750     1.2260 c6         1 T6M       0.166800
      3 C5          -3.0610    -0.2850     1.2660 c6         1 T6M       0.099500
      4 C6           1.4300    -0.7670    -0.0290 ca         1 T6M      -0.308500
      5 C7           1.9360    -0.3280     1.1890 ca         1 T6M      -0.008000
      6 C8           2.8380     0.7220     1.2140 ca         1 T6M      -0.125000
      7 C10          2.7220     0.8790    -1.1980 ca         1 T6M      -0.125000
      8 N           -3.4760     0.4190     0.0710 n          1 T6M      -0.419800
      9 C           -4.4080     2.3070    -1.1750 c3         1 T6M      -0.177100
     10 O           -4.2360     2.2160     1.2000 o          1 T6M      -0.598100
     11 C1          -4.0340     1.6520     0.1330 c          1 T6M       0.610100
     12 C11          1.8220    -0.1730    -1.2220 ca         1 T6M      -0.008000
     13 C2          -3.1570    -0.3050    -1.1390 c6         1 T6M       0.099500
     14 C3          -1.6650    -0.5850    -1.2140 c6         1 T6M       0.166800
     15 C9           3.2210     1.3170     0.0210 ca         1 T6M       0.168000
     16 O1           0.3490    -2.8210     1.1730 o          1 T6M      -0.530000
     17 O2           0.3060    -2.7360    -1.3380 o          1 T6M      -0.530000
     18 S            0.2180    -2.0590    -0.0560 sy         1 T6M       1.152600
     19 CL1          4.3450     2.6250     0.0520 cl         1 T6M      -0.182000
     20 H7          -1.3100    -1.1820     2.0910 h1         1 T6M       0.063700
     21 H6          -1.0100     0.3670     1.2810 h1         1 T6M       0.063700
     22 H9          -3.6130    -1.2260     1.3420 h1         1 T6M       0.067200
     23 H8          -3.2860     0.3100     2.1460 h1         1 T6M       0.067200
     24 H10          1.6450    -0.7960     2.1190 ha         1 T6M       0.139000
     25 H11          3.2410     1.0670     2.1560 ha         1 T6M       0.136000
     26 H12          3.0330     1.3470    -2.1210 ha         1 T6M       0.136000
     27 H           -5.0890     1.6900    -1.7630 hc         1 T6M       0.061700
     28 H14         -4.8980     3.2550    -0.9670 hc         1 T6M       0.061700
     29 H1          -3.5300     2.5070    -1.7910 hc         1 T6M       0.061700
     30 H13          1.4440    -0.5210    -2.1740 ha         1 T6M       0.139000
     31 H3          -3.7080    -1.2500    -1.1530 h1         1 T6M       0.067200
     32 H2          -3.4480     0.2520    -2.0250 h1         1 T6M       0.067200
     33 H5          -1.1240     0.3640    -1.3180 h1         1 T6M       0.063700
     34 H4          -1.4690    -1.1960    -2.0920 h1         1 T6M       0.063700
@<TRIPOS>BOND
     1     1     2 1   
     2     1    14 1   
     3     1    18 1   
     4     2     3 1   
     5     2    20 1   
     6     2    21 1   
     7     3     8 1   
     8     3    22 1   
     9     3    23 1   
    10     4     5 ar  
    11     4    12 ar  
    12     4    18 1   
    13     5     6 ar  
    14     5    24 1   
    15     6    15 ar  
    16     6    25 1   
    17     7    12 ar  
    18     7    15 ar  
    19     7    26 1   
    20     8    11 1   
    21     8    13 1   
    22     9    11 1   
    23     9    27 1   
    24     9    28 1   
    25     9    29 1   
    26    10    11 2   
    27    12    30 1   
    28    13    14 1   
    29    13    31 1   
    30    13    32 1   
    31    14    33 1   
    32    14    34 1   
    33    15    19 1   
    34    16    18 2   
    35    17    18 2   
@<TRIPOS>SUBSTRUCTURE
     1 T6M         1 TEMP              0 ****  ****    0 ROOT
