@<TRIPOS>MOLECULE
T6M
   34    35     1     0     0
SMALL
No Charge or Current Charge


@<TRIPOS>ATOM
      1 N1          -1.2360    -1.3250    -0.0040 n3         1 T6M      -0.710500
      2 C4          -1.4530    -0.5220     1.2240 c6         1 T6M       0.166800
      3 C5          -2.8930     0.0460     1.3030 c6         1 T6M       0.099500
      4 C6           1.4780    -0.8970    -0.0210 ca         1 T6M      -0.308500
      5 C7           1.9830    -0.4170     1.2060 ca         1 T6M      -0.008000
      6 C8           2.9520     0.6000     1.2160 ca         1 T6M      -0.125000
      7 C10          2.9280     0.6570    -1.2160 ca         1 T6M      -0.125000
      8 N           -3.3710     0.7410     0.0680 n          1 T6M      -0.419800
      9 C           -5.0530     2.1940    -1.1510 c3         1 T6M      -0.177100
     10 O           -5.1370     1.6950     1.1850 o          1 T6M      -0.598100
     11 C1          -4.5520     1.5150     0.1250 c          1 T6M       0.610100
     12 C11          1.9580    -0.3600    -1.2350 ca         1 T6M      -0.008000
     13 C2          -2.9210     0.1090    -1.2140 c6         1 T6M       0.099500
     14 C3          -1.4810    -0.4690    -1.1900 c6         1 T6M       0.166800
     15 C9           3.4210     1.1360     0.0070 ca         1 T6M       0.168000
     16 O1           0.2850    -2.9550     1.2170 o          1 T6M      -0.530000
     17 O2           0.2590    -2.8940    -1.3320 o          1 T6M      -0.530000
     18 S            0.2300    -2.1990    -0.0400 sy         1 T6M       1.152600
     19 Cl1          4.6340     2.4100     0.0250 cl         1 T6M      -0.182000
     20 H7          -1.2800    -1.1250     2.1270 h1         1 T6M       0.063700
     21 H6          -0.7460     0.3200     1.2620 h1         1 T6M       0.063700
     22 H9          -3.5810    -0.7840     1.5180 h1         1 T6M       0.067200
     23 H8          -2.9450     0.7360     2.1580 h1         1 T6M       0.067200
     24 H10          1.6270    -0.8260     2.1520 ha         1 T6M       0.139000
     25 H11          3.3390     0.9730     2.1600 ha         1 T6M       0.136000
     26 H12          3.2970     1.0740    -2.1500 ha         1 T6M       0.136000
     27 H           -5.2970     1.4270    -1.8960 hc         1 T6M       0.061700
     28 H14         -5.9110     2.8500    -0.9670 hc         1 T6M       0.061700
     29 H1          -4.2250     2.7360    -1.6220 hc         1 T6M       0.061700
     30 H13          1.5840    -0.7240    -2.1910 ha         1 T6M       0.139000
     31 H3          -3.6160    -0.7060    -1.4580 h1         1 T6M       0.067200
     32 H2          -2.9720     0.8360    -2.0360 h1         1 T6M       0.067200
     33 H5          -0.7710     0.3710    -1.2080 h1         1 T6M       0.063700
     34 H4          -1.3310    -1.0340    -2.1220 h1         1 T6M       0.063700
@<TRIPOS>BOND
     1     1     2 1   
     2     1    14 1   
     3     1    18 1   
     4     2     3 1   
     5     2    20 1   
     6     2    21 1   
     7     3     8 1   
     8     3    22 1   
     9     3    23 1   
    10     4     5 ar  
    11     4    12 ar  
    12     4    18 1   
    13     5     6 ar  
    14     5    24 1   
    15     6    15 ar  
    16     6    25 1   
    17     7    12 ar  
    18     7    15 ar  
    19     7    26 1   
    20     8    11 1   
    21     8    13 1   
    22     9    11 1   
    23     9    27 1   
    24     9    28 1   
    25     9    29 1   
    26    10    11 2   
    27    12    30 1   
    28    13    14 1   
    29    13    31 1   
    30    13    32 1   
    31    14    33 1   
    32    14    34 1   
    33    15    19 1   
    34    16    18 2   
    35    17    18 2   
@<TRIPOS>SUBSTRUCTURE
     1 T6M         1 TEMP              0 ****  ****    0 ROOT
