@<TRIPOS>MOLECULE
T6N
   36    36     1     0     0
SMALL
bcc


@<TRIPOS>ATOM
      1 C2          16.7090    20.7080     0.9860 ca         1 T6N       0.118100
      2 C3          17.9200    20.0800     1.2550 ca         1 T6N      -0.159500
      3 C6          19.4550    22.4040     3.8530 c3         1 T6N      -0.042800
      4 C8          16.3900    21.8810     1.6650 ca         1 T6N      -0.159500
      5 C9          14.2130    18.8850    -0.9270 c3         1 T6N      -0.096600
      6 C10         16.5860    18.2280    -1.0330 c          1 T6N       0.642100
      7 C11         18.1800    18.5500    -2.8570 c3         1 T6N       0.117000
      8 C12         19.5800    18.3420    -2.2960 c3         1 T6N       0.011700
      9 N           17.2240    19.0380    -1.8910 ns         1 T6N      -0.560900
     10 C           15.3500    18.1490     1.1730 c3         1 T6N      -0.096600
     11 O           15.8080    20.2850     0.0570 os         1 T6N      -0.349900
     12 C1          15.5250    18.8990    -0.1410 c3         1 T6N       0.095800
     13 C4          18.7890    20.6270     2.1910 ca         1 T6N      -0.105000
     14 C5          18.4910    21.8030     2.8700 ca         1 T6N      -0.096300
     15 C7          17.2740    22.4190     2.5860 ca         1 T6N      -0.105000
     16 O1          16.7610    17.0200    -0.9960 o          1 T6N      -0.609100
     17 S           20.2930    19.9460    -1.7990 sh         1 T6N      -0.415900
     18 H1          18.2170    19.1740     0.7460 ha         1 T6N       0.141000
     19 H2          20.0690    23.1750     3.3820 hc         1 T6N       0.040700
     20 H3          18.9330    22.8740     4.6870 hc         1 T6N       0.040700
     21 H4          20.1330    21.6550     4.2600 hc         1 T6N       0.040700
     22 H5          15.4450    22.3700     1.4650 ha         1 T6N       0.141000
     23 H6          13.4090    19.3000    -0.3200 hc         1 T6N       0.054200
     24 H7          14.2910    19.4680    -1.8450 hc         1 T6N       0.054200
     25 H8          13.9440    17.8640    -1.1960 hc         1 T6N       0.054200
     26 H9          18.2090    19.2580    -3.6860 h1         1 T6N       0.063200
     27 H10         17.8330    17.6000    -3.2640 h1         1 T6N       0.063200
     28 H11         19.5490    17.6740    -1.4370 h1         1 T6N       0.070200
     29 H12         20.2050    17.8870    -3.0640 h1         1 T6N       0.070200
     30 H13         17.0350    20.0270    -1.8620 hn         1 T6N       0.340500
     31 H14         14.6170    18.6670     1.7930 hc         1 T6N       0.054200
     32 H15         14.9740    17.1460     0.9830 hc         1 T6N       0.054200
     33 H16         16.2730    18.0540     1.7410 hc         1 T6N       0.054200
     34 H17         19.7250    20.1180     2.3880 ha         1 T6N       0.129000
     35 H18         17.0020    23.3340     3.1010 ha         1 T6N       0.129000
     36 H19         21.3930    19.4710    -1.2050 hs         1 T6N       0.215800
@<TRIPOS>BOND
     1     1     2 ar  
     2     1     4 ar  
     3     1    11 1   
     4     2    13 ar  
     5     2    18 1   
     6     3    14 1   
     7     3    19 1   
     8     3    20 1   
     9     3    21 1   
    10     4    15 ar  
    11     4    22 1   
    12     5    12 1   
    13     5    23 1   
    14     5    24 1   
    15     5    25 1   
    16     6     9 1   
    17     6    12 1   
    18     6    16 2   
    19     7     8 1   
    20     7     9 1   
    21     7    26 1   
    22     7    27 1   
    23     8    17 1   
    24     8    28 1   
    25     8    29 1   
    26     9    30 1   
    27    10    12 1   
    28    10    31 1   
    29    10    32 1   
    30    10    33 1   
    31    11    12 1   
    32    13    14 ar  
    33    13    34 1   
    34    14    15 ar  
    35    15    35 1   
    36    17    36 1   
@<TRIPOS>SUBSTRUCTURE
     1 T6N         1 TEMP              0 ****  ****    0 ROOT
