@<TRIPOS>MOLECULE
T6N
   36    36     1     0     0
SMALL
No Charge or Current Charge


@<TRIPOS>ATOM
      1 C2          16.5690    20.6670     1.0460 ca         1 T6N       0.118100
      2 C3          17.7720    19.9900     1.3420 ca         1 T6N      -0.141500
      3 C6          19.6030    22.5580     3.5260 c3         1 T6N      -0.042800
      4 C8          16.3730    21.9630     1.5500 ca         1 T6N      -0.141500
      5 C9          14.0380    18.7080    -0.8600 c3         1 T6N      -0.096600
      6 C10         16.5040    18.2570    -1.1420 c          1 T6N       0.575100
      7 C11         18.3140    19.0150    -2.7350 c3         1 T6N       0.117000
      8 C12         19.6130    18.4050    -2.1650 c3         1 T6N       0.059600
      9 N           17.2750    19.2450    -1.7220 ns         1 T6N      -0.493900
     10 C           15.3250    17.8770     1.1550 c3         1 T6N      -0.096600
     11 O           15.5570    20.1420     0.2570 os         1 T6N      -0.373100
     12 C1          15.4040    18.7450    -0.1340 c3         1 T6N       0.119000
     13 C4          18.7490    20.6040     2.1470 ca         1 T6N      -0.087000
     14 C5          18.5410    21.8970     2.6610 ca         1 T6N      -0.096300
     15 C7          17.3490    22.5770     2.3540 ca         1 T6N      -0.087000
     16 O1          16.6880    17.0740    -1.4020 o          1 T6N      -0.609100
     17 S           20.4800    19.4740    -0.9170 sh         1 T6N      -0.463800
     18 H1          17.9820    19.0020     0.9510 ha         1 T6N       0.123000
     19 H2          20.3210    23.1100     2.9080 hc         1 T6N       0.040700
     20 H3          19.1580    23.2660     4.2360 hc         1 T6N       0.040700
     21 H4          20.1630    21.8170     4.1090 hc         1 T6N       0.040700
     22 H5          15.4540    22.4950     1.3180 ha         1 T6N       0.123000
     23 H6          13.2350    19.0620    -0.2020 hc         1 T6N       0.054200
     24 H7          14.0560    19.3470    -1.7520 hc         1 T6N       0.054200
     25 H8          13.7930    17.6880    -1.1790 hc         1 T6N       0.054200
     26 H9          18.5490    19.9720    -3.2180 h1         1 T6N       0.063200
     27 H10         17.9110    18.3440    -3.5060 h1         1 T6N       0.063200
     28 H11         19.3860    17.4390    -1.6960 h1         1 T6N       0.070200
     29 H12         20.3080    18.2170    -2.9940 h1         1 T6N       0.070200
     30 H13         17.0810    20.1940    -1.4240 hn         1 T6N       0.340500
     31 H14         14.6490    18.3320     1.8890 hc         1 T6N       0.054200
     32 H15         14.9400    16.8770     0.9200 hc         1 T6N       0.054200
     33 H16         16.3010    17.7390     1.6280 hc         1 T6N       0.054200
     34 H17         19.6730    20.0730     2.3650 ha         1 T6N       0.111000
     35 H18         17.1770    23.5800     2.7380 ha         1 T6N       0.111000
     36 H19         21.5140    18.6260    -0.6860 hs         1 T6N       0.215800
@<TRIPOS>BOND
     1     1     2 ar  
     2     1     4 ar  
     3     1    11 1   
     4     2    13 ar  
     5     2    18 1   
     6     3    14 1   
     7     3    19 1   
     8     3    20 1   
     9     3    21 1   
    10     4    15 ar  
    11     4    22 1   
    12     5    12 1   
    13     5    23 1   
    14     5    24 1   
    15     5    25 1   
    16     6     9 1   
    17     6    12 1   
    18     6    16 2   
    19     7     8 1   
    20     7     9 1   
    21     7    26 1   
    22     7    27 1   
    23     8    17 1   
    24     8    28 1   
    25     8    29 1   
    26     9    30 1   
    27    10    12 1   
    28    10    31 1   
    29    10    32 1   
    30    10    33 1   
    31    11    12 1   
    32    13    14 ar  
    33    13    34 1   
    34    14    15 ar  
    35    15    35 1   
    36    17    36 1   
@<TRIPOS>SUBSTRUCTURE
     1 T6N         1 TEMP              0 ****  ****    0 ROOT
