@<TRIPOS>MOLECULE
T6O
   43    44     1     0     0
SMALL
No Charge or Current Charge


@<TRIPOS>ATOM
      1 C           -1.0290     6.3660    -6.5010 c3         1 T6O      -0.087100
      2 N            0.6610     8.0280    -7.4180 nj         1 T6O      -0.462200
      3 O6           2.4240    12.7830    -3.7430 o          1 T6O      -0.710500
      4 C9           1.3480    12.3620    -4.1510 c          1 T6O       0.729000
      5 O7           1.2060    11.2210    -4.5780 o          1 T6O      -0.710500
      6 C6           0.0830    13.3020    -4.0480 c3         1 T6O       0.036000
      7 C7           0.1060    14.2980    -5.2340 c3         1 T6O      -0.075100
      8 C8           0.0300    14.0830    -2.7000 c3         1 T6O      -0.075100
      9 O5          -1.1730    12.5780    -4.2090 os         1 T6O      -0.295000
     10 N2          -1.3800    11.6200    -3.1880 n2         1 T6O      -0.270700
     11 C5          -2.4100    10.8490    -3.3990 ce         1 T6O       0.256300
     12 C10         -3.5660    10.9400    -2.4730 cc         1 T6O       0.345700
     13 N3          -4.6590    10.1000    -2.5840 nc         1 T6O      -0.673000
     14 C12         -5.5300    10.3760    -1.6580 cd         1 T6O       0.691300
     15 N4          -6.6430     9.6370    -1.6220 nv         1 T6O      -1.052900
     16 S1          -5.1560    11.6510    -0.5270 ss         1 T6O      -0.199400
     17 C11         -3.6560    11.8350    -1.4210 cd         1 T6O      -0.247000
     18 C4          -2.3710     9.8770    -4.5820 c          1 T6O       0.526800
     19 O4          -3.2910     9.1400    -4.9280 o          1 T6O      -0.653100
     20 N1          -1.1780     9.8510    -5.2940 ns         1 T6O      -0.466900
     21 C2          -0.9240     9.0170    -6.4590 cy         1 T6O      -0.018300
     22 C3           0.2660     9.3490    -7.4250 c          1 T6O       0.584000
     23 S            2.1160     7.4040    -8.0180 s6         1 T6O       1.405400
     24 O2           2.0130     7.6440    -9.4650 o          1 T6O      -0.702867
     25 O3           2.0780     5.9910    -7.6180 o          1 T6O      -0.702867
     26 O1           3.1360     8.2090    -7.3330 o          1 T6O      -0.702867
     27 C1          -0.1990     7.6400    -6.2850 cy         1 T6O       0.112700
     28 H1          -1.7780     6.2540    -5.7080 hc         1 T6O       0.030700
     29 H2          -1.5570     6.3920    -7.4620 hc         1 T6O       0.030700
     30 H3          -0.3940     5.4720    -6.4880 hc         1 T6O       0.030700
     31 H5           1.0030    14.9280    -5.1940 hc         1 T6O       0.031200
     32 H6           0.1130    13.7600    -6.1890 hc         1 T6O       0.031200
     33 H7          -0.7720    14.9540    -5.2130 hc         1 T6O       0.031200
     34 H8           0.1390    13.4060    -1.8440 hc         1 T6O       0.031200
     35 H9           0.8420    14.8170    -2.6450 hc         1 T6O       0.031200
     36 H10         -0.9190    14.6220    -2.5970 hc         1 T6O       0.031200
     37 H11         -6.6070     8.7800    -2.1600 hn         1 T6O       0.468500
     38 H12         -7.1520     9.6060    -0.7460 hn         1 T6O       0.468500
     39 H13         -2.9290    12.5840    -1.1300 h4         1 T6O       0.167000
     40 H14         -0.4450    10.4860    -4.9540 hn         1 T6O       0.407500
     41 H15         -1.8530     8.9350    -7.0320 h1         1 T6O       0.072700
     42 H16          0.3770     7.5700    -5.3540 h1         1 T6O       0.085700
     43 O            0.6720    10.3560    -7.9910 o          1 T6O      -0.532000
@<TRIPOS>BOND
     1     1    27 1   
     2     1    28 1   
     3     1    29 1   
     4     1    30 1   
     5     2    22 1   
     6     2    23 1   
     7     2    27 1   
     8     3     4 1   
     9     4     5 1   
    10     4     6 1   
    11     6     7 1   
    12     6     8 1   
    13     6     9 1   
    14     7    31 1   
    15     7    32 1   
    16     7    33 1   
    17     8    34 1   
    18     8    35 1   
    19     8    36 1   
    20     9    10 1   
    21    10    11 2   
    22    11    12 1   
    23    11    18 1   
    24    12    13 1   
    25    12    17 2   
    26    13    14 2   
    27    14    15 1   
    28    14    16 1   
    29    15    37 1   
    30    15    38 1   
    31    16    17 1   
    32    17    39 1   
    33    18    19 2   
    34    18    20 1   
    35    20    21 1   
    36    20    40 1   
    37    21    22 1   
    38    21    27 1   
    39    21    41 1   
    40    22    43 2   
    41    23    24 1   
    42    23    25 1   
    43    23    26 1   
    44    27    42 1   
@<TRIPOS>SUBSTRUCTURE
     1 T6O         1 TEMP              0 ****  ****    0 ROOT
