@<TRIPOS>MOLECULE
T6O
   43    44     1     0     0
SMALL
abcg2


@<TRIPOS>ATOM
      1 C           -1.0500     6.5360    -6.4580 c3         1 T6O      -0.087100
      2 N            0.3870     8.4920    -7.1480 nj         1 T6O      -0.462200
      3 O6           2.0570    12.0930    -2.8810 o          1 T6O      -0.710500
      4 C9           1.0250    11.8220    -3.5070 c          1 T6O       0.729000
      5 O7           0.5660    10.6720    -3.7150 o          1 T6O      -0.710500
      6 C6           0.2740    13.0280    -4.1380 c3         1 T6O       0.036000
      7 C7           0.9550    13.3830    -5.4550 c3         1 T6O      -0.075100
      8 C8           0.2440    14.2360    -3.2100 c3         1 T6O      -0.075100
      9 O5          -1.0510    12.6440    -4.5290 os         1 T6O      -0.295000
     10 N2          -1.8450    12.3810    -3.4550 n2         1 T6O      -0.270700
     11 C5          -2.6910    11.4600    -3.6910 ce         1 T6O       0.256300
     12 C10         -3.6950    11.1610    -2.6700 cc         1 T6O       0.345700
     13 N3          -4.2020     9.8900    -2.6060 nc         1 T6O      -0.673000
     14 C12         -5.0480     9.7770    -1.6310 cd         1 T6O       0.691300
     15 N4          -5.7470     8.6550    -1.3450 nv         1 T6O      -1.052900
     16 S1          -5.2910    11.2460    -0.7180 ss         1 T6O      -0.199400
     17 C11         -4.1580    12.0400    -1.7460 cd         1 T6O      -0.247000
     18 C4          -2.7350    10.6370    -4.9600 c          1 T6O       0.526800
     19 O4          -3.7330    10.6290    -5.6620 o          1 T6O      -0.653100
     20 N1          -1.6220     9.9210    -5.1520 ns         1 T6O      -0.466900
     21 C2          -1.4050     9.1150    -6.3060 cy         1 T6O      -0.018300
     22 C3          -0.3450     9.6250    -7.2950 c          1 T6O       0.584000
     23 S            1.9760     8.0850    -7.6770 s6         1 T6O       1.405400
     24 O2           1.8370     7.8570    -9.1140 o          1 T6O      -0.702867
     25 O3           2.2560     6.8880    -6.8850 o          1 T6O      -0.702867
     26 O1           2.7820     9.2570    -7.3360 o          1 T6O      -0.702867
     27 C1          -0.4740     7.8880    -6.1190 cy         1 T6O       0.112700
     28 H1          -1.7880     6.2500    -5.7080 hc         1 T6O       0.030700
     29 H2          -1.5420     6.5550    -7.4310 hc         1 T6O       0.030700
     30 H3          -0.2750     5.7720    -6.4770 hc         1 T6O       0.030700
     31 H5           1.9950    13.6490    -5.2740 hc         1 T6O       0.031200
     32 H6           0.9370    12.5460    -6.1540 hc         1 T6O       0.031200
     33 H7           0.4670    14.2370    -5.9290 hc         1 T6O       0.031200
     34 H8          -0.1800    14.0040    -2.2350 hc         1 T6O       0.031200
     35 H9           1.2540    14.6100    -3.0530 hc         1 T6O       0.031200
     36 H10         -0.3430    15.0410    -3.6560 hc         1 T6O       0.031200
     37 H11         -5.3950     7.8030    -1.7540 hn         1 T6O       0.468500
     38 H12         -6.1280     8.5440    -0.4200 hn         1 T6O       0.468500
     39 H13         -3.9140    13.0820    -1.6210 h4         1 T6O       0.167000
     40 H14         -0.7890    10.1790    -4.5830 hn         1 T6O       0.407500
     41 H15         -2.3510     8.8660    -6.7910 h1         1 T6O       0.072700
     42 H16          0.0080     7.8840    -5.1380 h1         1 T6O       0.085700
     43 O           -0.1800    10.6310    -7.9370 o          1 T6O      -0.532000
@<TRIPOS>BOND
     1     1    27 1   
     2     1    28 1   
     3     1    29 1   
     4     1    30 1   
     5     2    22 1   
     6     2    23 1   
     7     2    27 1   
     8     3     4 1   
     9     4     5 1   
    10     4     6 1   
    11     6     7 1   
    12     6     8 1   
    13     6     9 1   
    14     7    31 1   
    15     7    32 1   
    16     7    33 1   
    17     8    34 1   
    18     8    35 1   
    19     8    36 1   
    20     9    10 1   
    21    10    11 2   
    22    11    12 1   
    23    11    18 1   
    24    12    13 1   
    25    12    17 2   
    26    13    14 2   
    27    14    15 1   
    28    14    16 1   
    29    15    37 1   
    30    15    38 1   
    31    16    17 1   
    32    17    39 1   
    33    18    19 2   
    34    18    20 1   
    35    20    21 1   
    36    20    40 1   
    37    21    22 1   
    38    21    27 1   
    39    21    41 1   
    40    22    43 2   
    41    23    24 1   
    42    23    25 1   
    43    23    26 1   
    44    27    42 1   
@<TRIPOS>SUBSTRUCTURE
     1 T6O         1 TEMP              0 ****  ****    0 ROOT
