@<TRIPOS>MOLECULE
T6R
   21    22     1     0     0
SMALL
abcg2


@<TRIPOS>ATOM
      1 N1          -9.7910    -3.8120   -16.5500 nc         1 T6R      -0.575100
      2 C4         -11.0720    -5.3080   -18.1360 ca         1 T6R      -0.048000
      3 C5         -12.0460    -5.2910   -19.1230 ca         1 T6R      -0.136000
      4 C6         -12.6650    -4.0930   -19.5230 ca         1 T6R      -0.096000
      5 C7         -12.3290    -2.8750   -18.9460 ca         1 T6R      -0.115000
      6 C8         -11.3520    -2.8990   -17.9550 ca         1 T6R      -0.078200
      7 N          -10.7760    -1.9010   -17.1930 na         1 T6R      -0.194600
      8 C          -12.4140    -0.2030   -16.4280 c3         1 T6R      -0.115100
      9 C1         -11.1280    -0.4850   -17.1950 c3         1 T6R       0.083600
     10 C2          -9.8650    -2.5110   -16.3800 cd         1 T6R       0.419700
     11 C3         -10.7210    -4.0940   -17.5420 ca         1 T6R       0.066400
     12 H1         -10.5970    -6.2320   -17.8300 ha         1 T6R       0.128000
     13 H2         -12.3390    -6.2180   -19.6000 ha         1 T6R       0.113000
     14 H3         -13.4200    -4.1210   -20.2980 ha         1 T6R       0.111000
     15 H4         -12.8090    -1.9560   -19.2540 ha         1 T6R       0.115000
     16 H5         -12.6330     0.8660   -16.4570 hc         1 T6R       0.049033
     17 H6         -13.2580    -0.7360   -16.8680 hc         1 T6R       0.049033
     18 H7         -12.3150    -0.5090   -15.3860 hc         1 T6R       0.049033
     19 H8         -10.2890     0.0530   -16.7550 h1         1 T6R       0.057200
     20 H9         -11.2170    -0.1640   -18.2340 h1         1 T6R       0.057200
     21 H10         -9.2770    -1.9380   -15.6780 h5         1 T6R       0.059800
@<TRIPOS>BOND
     1     1    10 2   
     2     1    11 1   
     3     2     3 ar  
     4     2    11 ar  
     5     2    12 1   
     6     3     4 ar  
     7     3    13 1   
     8     4     5 ar  
     9     4    14 1   
    10     5     6 ar  
    11     5    15 1   
    12     6     7 1   
    13     6    11 ar  
    14     7     9 1   
    15     7    10 1   
    16     8     9 1   
    17     8    16 1   
    18     8    17 1   
    19     8    18 1   
    20     9    19 1   
    21     9    20 1   
    22    10    21 1   
@<TRIPOS>SUBSTRUCTURE
     1 T6R         1 TEMP              0 ****  ****    0 ROOT
