@<TRIPOS>MOLECULE
T6R
   21    22     1     0     0
SMALL
No Charge or Current Charge


@<TRIPOS>ATOM
      1 N1          -9.7690    -3.8900   -16.5400 nc         1 T6R      -0.575100
      2 C4         -11.0580    -5.3060   -18.1520 ca         1 T6R      -0.048000
      3 C5         -12.0490    -5.2950   -19.1580 ca         1 T6R      -0.136000
      4 C6         -12.6720    -4.0830   -19.5340 ca         1 T6R      -0.096000
      5 C7         -12.3050    -2.8740   -18.9070 ca         1 T6R      -0.115000
      6 C8         -11.3160    -2.9250   -17.9130 ca         1 T6R      -0.078200
      7 N          -10.7840    -1.9160   -17.1570 na         1 T6R      -0.194600
      8 C          -12.4260    -0.1660   -16.4310 c3         1 T6R      -0.115100
      9 C1         -11.1530    -0.4940   -17.2310 c3         1 T6R       0.083600
     10 C2          -9.8430    -2.5560   -16.3330 cd         1 T6R       0.419700
     11 C3         -10.7080    -4.0930   -17.5400 ca         1 T6R       0.066400
     12 H1         -10.5750    -6.2340   -17.8560 ha         1 T6R       0.128000
     13 H2         -12.3360    -6.2250   -19.6440 ha         1 T6R       0.113000
     14 H3         -13.4350    -4.0810   -20.3090 ha         1 T6R       0.111000
     15 H4         -12.7790    -1.9370   -19.1890 ha         1 T6R       0.115000
     16 H5         -12.6610     0.9020   -16.5100 hc         1 T6R       0.049033
     17 H6         -13.2820    -0.7360   -16.8120 hc         1 T6R       0.049033
     18 H7         -12.2900    -0.4110   -15.3710 hc         1 T6R       0.049033
     19 H8         -10.3180     0.1050   -16.8440 h1         1 T6R       0.057200
     20 H9         -11.2990    -0.2180   -18.2830 h1         1 T6R       0.057200
     21 H10         -9.2560    -1.9940   -15.6150 h5         1 T6R       0.059800
@<TRIPOS>BOND
     1     1    10 2   
     2     1    11 1   
     3     2     3 ar  
     4     2    11 ar  
     5     2    12 1   
     6     3     4 ar  
     7     3    13 1   
     8     4     5 ar  
     9     4    14 1   
    10     5     6 ar  
    11     5    15 1   
    12     6     7 1   
    13     6    11 ar  
    14     7     9 1   
    15     7    10 1   
    16     8     9 1   
    17     8    16 1   
    18     8    17 1   
    19     8    18 1   
    20     9    19 1   
    21     9    20 1   
    22    10    21 1   
@<TRIPOS>SUBSTRUCTURE
     1 T6R         1 TEMP              0 ****  ****    0 ROOT
