@<TRIPOS>MOLECULE
T6S
   48    49     1     0     0
SMALL
No Charge or Current Charge


@<TRIPOS>ATOM
      1 C01         46.9980    16.5500    56.2540 c6         1 T6S       0.127300
      2 C02         45.5060    16.1320    56.4490 c6         1 T6S       0.109300
      3 C03         44.5980    17.2870    55.9310 c6         1 T6S       0.129300
      4 C04         44.9330    17.6190    54.4480 c6         1 T6S       0.158300
      5 C05         46.4650    17.9340    54.3080 c6         1 T6S       0.389300
      6 C09         48.0190    15.4580    56.6920 c3         1 T6S       0.226600
      7 C12         47.2660    21.4570    53.2950 c6         1 T6S       0.171300
      8 C14         48.1580    19.6180    54.6470 c6         1 T6S       0.380300
      9 C15         48.7190    20.6180    55.7240 c6         1 T6S       0.130300
     10 C16         47.8570    21.9120    55.7280 c6         1 T6S       0.094300
     11 C17         47.7950    22.5290    54.3020 c6         1 T6S       0.150300
     12 C20         47.2560    21.9670    51.8150 c3         1 T6S       0.173600
     13 O06         47.2410    16.8410    54.8490 os         1 T6S      -0.444000
     14 O07         44.0780    18.6910    53.9880 oh         1 T6S      -0.707000
     15 O08         45.1900    15.8540    57.8310 oh         1 T6S      -0.726000
     16 O10         43.2070    16.9360    56.0730 oh         1 T6S      -0.684000
     17 O11         49.3430    16.0210    56.6910 os         1 T6S      -0.585700
     18 O13         48.0950    20.2610    53.3530 os         1 T6S      -0.459000
     19 O18         48.3820    22.8670    56.6710 oh         1 T6S      -0.680000
     20 O19         48.7570    20.0600    57.0650 oh         1 T6S      -0.694000
     21 O21         48.5700    22.2140    51.2700 oh         1 T6S      -0.708000
     22 O22         46.8430    19.1430    54.9930 os         1 T6S      -0.487000
     23 O23         46.9680    23.7070    54.3420 oh         1 T6S      -0.726000
     24 O25         50.2100    14.5630    58.4670 o          1 T6S      -0.708200
     25 O26         50.4920    13.9320    56.0980 o          1 T6S      -0.708200
     26 O27         51.7610    15.8380    57.0270 o          1 T6S      -0.708200
     27 S24         50.5570    14.9990    57.1070 s6         1 T6S       1.494300
     28 H1          47.1980    17.4500    56.8550 h1         1 T6S       0.089700
     29 H2          45.3150    15.2380    55.8350 h1         1 T6S       0.042700
     30 H3          44.8180    18.1810    56.5360 h1         1 T6S       0.073700
     31 H4          44.7320    16.7180    53.8490 h1         1 T6S       0.044700
     32 H5          46.6880    18.0400    53.2350 h2         1 T6S       0.081700
     33 H6          47.7520    15.1080    57.6980 h1         1 T6S       0.034700
     34 H7          47.9410    14.6070    56.0000 h1         1 T6S       0.034700
     35 H8          46.2340    21.1890    53.5640 h1         1 T6S       0.067700
     36 H9          48.8540    18.7650    54.5900 h2         1 T6S       0.129700
     37 H10         49.7390    20.8890    55.4120 h1         1 T6S       0.061700
     38 H11         46.8340    21.6290    56.0200 h1         1 T6S       0.068700
     39 H12         48.8180    22.8020    54.0000 h1         1 T6S       0.065700
     40 H13         46.6480    22.8810    51.7660 h1         1 T6S       0.027700
     41 H14         46.7400    21.2100    51.2090 h1         1 T6S       0.027700
     42 H15         43.2170    18.5250    54.4430 ho         1 T6S       0.509000
     43 H16         45.3270    14.8880    57.9830 ho         1 T6S       0.512000
     44 H17         43.1510    16.4920    56.9510 ho         1 T6S       0.457000
     45 H18         48.6630    22.3250    57.4450 ho         1 T6S       0.450000
     46 H19         49.2870    19.2290    57.0290 ho         1 T6S       0.507000
     47 H20         48.4450    22.4640    50.3250 ho         1 T6S       0.493000
     48 H21         47.1840    24.1220    55.2120 ho         1 T6S       0.514000
@<TRIPOS>BOND
     1     1     2 1   
     2     1     6 1   
     3     1    13 1   
     4     1    28 1   
     5     2     3 1   
     6     2    15 1   
     7     2    29 1   
     8     3     4 1   
     9     3    16 1   
    10     3    30 1   
    11     4     5 1   
    12     4    14 1   
    13     4    31 1   
    14     5    13 1   
    15     5    22 1   
    16     5    32 1   
    17     6    17 1   
    18     6    33 1   
    19     6    34 1   
    20     7    11 1   
    21     7    12 1   
    22     7    18 1   
    23     7    35 1   
    24     8     9 1   
    25     8    18 1   
    26     8    22 1   
    27     8    36 1   
    28     9    10 1   
    29     9    20 1   
    30     9    37 1   
    31    10    11 1   
    32    10    19 1   
    33    10    38 1   
    34    11    23 1   
    35    11    39 1   
    36    12    21 1   
    37    12    40 1   
    38    12    41 1   
    39    14    42 1   
    40    15    43 1   
    41    16    44 1   
    42    17    27 1   
    43    19    45 1   
    44    20    46 1   
    45    21    47 1   
    46    23    48 1   
    47    24    27 1   
    48    25    27 1   
    49    26    27 1   
@<TRIPOS>SUBSTRUCTURE
     1 T6S         1 TEMP              0 ****  ****    0 ROOT
