@<TRIPOS>MOLECULE
T6S
   48    49     1     0     0
SMALL
bcc


@<TRIPOS>ATOM
      1 C01         47.0340    16.4880    56.1070 c6         1 T6S       0.104100
      2 C02         45.5860    16.1370    56.4530 c6         1 T6S       0.086100
      3 C03         44.6940    17.3310    56.1230 c6         1 T6S       0.106100
      4 C04         44.8910    17.7460    54.6690 c6         1 T6S       0.135100
      5 C05         46.3710    17.9620    54.3660 c6         1 T6S       0.342900
      6 C09         47.9860    15.3350    56.3270 c3         1 T6S       0.203400
      7 C12         47.3840    21.3310    53.3140 c6         1 T6S       0.148100
      8 C14         48.0870    19.5530    54.7410 c6         1 T6S       0.333900
      9 C15         48.5160    20.5330    55.8290 c6         1 T6S       0.107100
     10 C16         47.7070    21.8240    55.7300 c6         1 T6S       0.071100
     11 C17         47.8330    22.3890    54.3210 c6         1 T6S       0.127100
     12 C20         47.5160    21.7570    51.8680 c3         1 T6S       0.150400
     13 O06         47.1110    16.8380    54.7310 os         1 T6S      -0.397600
     14 O07         44.1960    18.9190    54.3400 oh         1 T6S      -0.584800
     15 O08         45.4280    15.8590    57.8270 oh         1 T6S      -0.603800
     16 O10         43.3300    17.0280    56.2890 oh         1 T6S      -0.621800
     17 O11         49.2930    15.7860    56.0100 os         1 T6S      -0.562500
     18 O13         48.1550    20.1480    53.4820 os         1 T6S      -0.412600
     19 O18         48.1850    22.8030    56.6270 oh         1 T6S      -0.617800
     20 O19         48.3760    19.9080    57.0810 oh         1 T6S      -0.571800
     21 O21         48.8490    22.1130    51.5910 oh         1 T6S      -0.585800
     22 O22         46.7930    19.1110    55.0440 os         1 T6S      -0.440600
     23 O23         47.0280    23.5270    54.1390 oh         1 T6S      -0.603800
     24 O25         50.4010    15.3460    58.1830 o          1 T6S      -0.708200
     25 O26         50.4020    13.6120    56.4500 o          1 T6S      -0.708200
     26 O27         51.6810    15.6960    56.1050 o          1 T6S      -0.708200
     27 S24         50.5530    15.0370    56.7580 s6         1 T6S       1.494300
     28 H1          47.3560    17.3250    56.7400 h1         1 T6S       0.089700
     29 H2          45.2720    15.2820    55.8370 h1         1 T6S       0.042700
     30 H3          44.9890    18.1660    56.7760 h1         1 T6S       0.073700
     31 H4          44.5680    16.9060    54.0350 h1         1 T6S       0.044700
     32 H5          46.5160    18.0680    53.2850 h2         1 T6S       0.081700
     33 H6          47.9120    15.0210    57.3720 h1         1 T6S       0.034700
     34 H7          47.7070    14.4830    55.6970 h1         1 T6S       0.034700
     35 H8          46.3180    21.1210    53.4820 h1         1 T6S       0.067700
     36 H9          48.7880    18.7120    54.7050 h2         1 T6S       0.129700
     37 H10         49.5690    20.7750    55.6290 h1         1 T6S       0.061700
     38 H11         46.6470    21.6060    55.9240 h1         1 T6S       0.068700
     39 H12         48.8930    22.6240    54.1400 h1         1 T6S       0.065700
     40 H13         46.8210    22.5850    51.6930 h1         1 T6S       0.027700
     41 H14         47.1780    20.9250    51.2360 h1         1 T6S       0.027700
     42 H15         43.2540    18.7420    54.4230 ho         1 T6S       0.410000
     43 H16         45.5380    14.9150    57.9740 ho         1 T6S       0.413000
     44 H17         43.1730    16.8520    57.2220 ho         1 T6S       0.418000
     45 H18         47.7990    22.6450    57.4940 ho         1 T6S       0.411000
     46 H19         49.0290    20.2750    57.6820 ho         1 T6S       0.408000
     47 H20         48.8880    22.4560    50.6940 ho         1 T6S       0.394000
     48 H21         47.2510    24.1600    54.8300 ho         1 T6S       0.415000
@<TRIPOS>BOND
     1     1     2 1   
     2     1     6 1   
     3     1    13 1   
     4     1    28 1   
     5     2     3 1   
     6     2    15 1   
     7     2    29 1   
     8     3     4 1   
     9     3    16 1   
    10     3    30 1   
    11     4     5 1   
    12     4    14 1   
    13     4    31 1   
    14     5    13 1   
    15     5    22 1   
    16     5    32 1   
    17     6    17 1   
    18     6    33 1   
    19     6    34 1   
    20     7    11 1   
    21     7    12 1   
    22     7    18 1   
    23     7    35 1   
    24     8     9 1   
    25     8    18 1   
    26     8    22 1   
    27     8    36 1   
    28     9    10 1   
    29     9    20 1   
    30     9    37 1   
    31    10    11 1   
    32    10    19 1   
    33    10    38 1   
    34    11    23 1   
    35    11    39 1   
    36    12    21 1   
    37    12    40 1   
    38    12    41 1   
    39    14    42 1   
    40    15    43 1   
    41    16    44 1   
    42    17    27 1   
    43    19    45 1   
    44    20    46 1   
    45    21    47 1   
    46    23    48 1   
    47    24    27 1   
    48    25    27 1   
    49    26    27 1   
@<TRIPOS>SUBSTRUCTURE
     1 T6S         1 TEMP              0 ****  ****    0 ROOT
