@<TRIPOS>MOLECULE
T6T
   24    24     1     0     0
SMALL
bcc


@<TRIPOS>ATOM
      1 O3          61.5190    61.3010    82.8040 oh         1 T6T      -0.579800
      2 C3          62.4860    60.8100    81.9090 c6         1 T6T       0.151100
      3 C4          63.2240    61.9970    81.2950 c6         1 T6T       0.158100
      4 O4          62.2810    62.8310    80.6700 oh         1 T6T      -0.583800
      5 C5          64.0280    62.7230    82.3620 c6         1 T6T       0.074100
      6 O5          64.7620    63.7470    81.7260 oh         1 T6T      -0.604800
      7 C6          64.9620    61.7270    83.0420 c6         1 T6T       0.116400
      8 O6          64.2530    60.6240    83.5680 os         1 T6T      -0.429600
      9 C2          63.4930    59.8940    82.6390 c6         1 T6T       0.317600
     10 O2          64.2850    59.3300    81.6380 oh         1 T6T      -0.600800
     11 C1          62.8030    58.8210    83.4780 c3         1 T6T       0.112400
     12 O1          61.9290    58.1000    82.6450 oh         1 T6T      -0.595800
     13 HO3         60.8080    60.6570    82.8730 ho         1 T6T       0.409000
     14 H3          62.0200    60.2360    81.0990 h1         1 T6T       0.079700
     15 H4          63.9350    61.5970    80.5580 h1         1 T6T       0.059700
     16 HO4         62.7580    63.5780    80.2940 ho         1 T6T       0.417000
     17 H5          63.3400    63.1440    83.1080 h1         1 T6T       0.068700
     18 HO5         65.0290    64.3910    82.3880 ho         1 T6T       0.410000
     19 H61         65.7350    61.4100    82.3320 h1         1 T6T       0.055200
     20 H62         65.4700    62.1960    83.8880 h1         1 T6T       0.055200
     21 HO2         64.8850    58.6840    82.0300 ho         1 T6T       0.417000
     22 H11         63.5780    58.1740    83.9150 h1         1 T6T       0.041200
     23 H12         62.2780    59.2930    84.3160 h1         1 T6T       0.041200
     24 HO1         61.4440    57.4730    83.1880 ho         1 T6T       0.412000
@<TRIPOS>BOND
     1     1     2 1   
     2     1    13 1   
     3     2     3 1   
     4     2     9 1   
     5     2    14 1   
     6     3     4 1   
     7     3     5 1   
     8     3    15 1   
     9     4    16 1   
    10     5     6 1   
    11     5     7 1   
    12     5    17 1   
    13     6    18 1   
    14     7     8 1   
    15     7    19 1   
    16     7    20 1   
    17     8     9 1   
    18     9    10 1   
    19     9    11 1   
    20    10    21 1   
    21    11    12 1   
    22    11    22 1   
    23    11    23 1   
    24    12    24 1   
@<TRIPOS>SUBSTRUCTURE
     1 T6T         1 TEMP              0 ****  ****    0 ROOT
