@<TRIPOS>MOLECULE
T6T
   24    24     1     0     0
SMALL
No Charge or Current Charge


@<TRIPOS>ATOM
      1 O3          61.3980    61.3600    82.8240 oh         1 T6T      -0.702000
      2 C3          62.4000    60.8360    81.9030 c6         1 T6T       0.174300
      3 C4          63.1920    62.0110    81.2310 c6         1 T6T       0.181300
      4 O4          62.3410    62.9440    80.5350 oh         1 T6T      -0.706000
      5 C5          64.0360    62.7720    82.2960 c6         1 T6T       0.097300
      6 O5          64.7620    63.8560    81.6710 oh         1 T6T      -0.727000
      7 C6          64.9920    61.7630    82.9990 c6         1 T6T       0.139600
      8 O6          64.2460    60.6500    83.5630 os         1 T6T      -0.476000
      9 C2          63.4500    59.8930    82.6230 c6         1 T6T       0.364000
     10 O2          64.3630    59.3010    81.6920 oh         1 T6T      -0.723000
     11 C1          62.7420    58.7500    83.4540 c3         1 T6T       0.135600
     12 O1          61.8820    57.8920    82.6690 oh         1 T6T      -0.718000
     13 HO3         60.7200    60.6530    82.9310 ho         1 T6T       0.508000
     14 H3          61.9140    60.2560    81.1040 h1         1 T6T       0.079700
     15 H4          63.8940    61.5690    80.5070 h1         1 T6T       0.059700
     16 HO4         62.8760    63.7730    80.5200 ho         1 T6T       0.516000
     17 H5          63.3520    63.1730    83.0600 h1         1 T6T       0.068700
     18 HO5         65.2230    64.3570    82.3870 ho         1 T6T       0.509000
     19 H61         65.7410    61.3860    82.2870 h1         1 T6T       0.055200
     20 H62         65.5310    62.2680    83.8130 h1         1 T6T       0.055200
     21 HO2         64.9650    58.7530    82.2400 ho         1 T6T       0.516000
     22 H11         63.5250    58.1510    83.9390 h1         1 T6T       0.041200
     23 H12         62.1660    59.2200    84.2630 h1         1 T6T       0.041200
     24 HO1         61.5940    57.1510    83.2540 ho         1 T6T       0.511000
@<TRIPOS>BOND
     1     1     2 1   
     2     1    13 1   
     3     2     3 1   
     4     2     9 1   
     5     2    14 1   
     6     3     4 1   
     7     3     5 1   
     8     3    15 1   
     9     4    16 1   
    10     5     6 1   
    11     5     7 1   
    12     5    17 1   
    13     6    18 1   
    14     7     8 1   
    15     7    19 1   
    16     7    20 1   
    17     8     9 1   
    18     9    10 1   
    19     9    11 1   
    20    10    21 1   
    21    11    12 1   
    22    11    22 1   
    23    11    23 1   
    24    12    24 1   
@<TRIPOS>SUBSTRUCTURE
     1 T6T         1 TEMP              0 ****  ****    0 ROOT
