@<TRIPOS>MOLECULE
T6V
   30    31     1     0     0
SMALL
No Charge or Current Charge


@<TRIPOS>ATOM
      1 C10          8.9970    -4.6390    24.7640 ca         1 T6V      -0.097000
      2 C13          5.4810    -7.1910    22.6360 c2         1 T6V      -0.098200
      3 C02          6.6160    -4.0880    20.9070 c          1 T6V       0.612100
      4 C03          7.9360    -3.3360    20.7180 c3         1 T6V      -0.169100
      5 C06          7.6320    -5.2840    22.8470 ca         1 T6V      -0.070000
      6 C07          8.5910    -6.2570    22.5050 ca         1 T6V      -0.109500
      7 C08          9.7260    -6.4490    23.3120 ca         1 T6V      -0.097000
      8 C09          9.9250    -5.6450    24.4470 ca         1 T6V      -0.097000
      9 C11          7.8630    -4.4480    23.9570 ca         1 T6V      -0.109500
     10 C12          5.2340    -5.7690    22.1270 c5         1 T6V       0.146900
     11 C14          4.5490    -7.5470    23.5460 ce         1 T6V      -0.364100
     12 C18          4.4650    -5.0290    23.2660 c5         1 T6V      -0.318400
     13 N05          6.5230    -5.0280    21.9680 n          1 T6V      -0.249400
     14 O01          5.6770    -3.8670    20.1490 o          1 T6V      -0.594100
     15 O16          3.2830    -6.1720    25.4320 o          1 T6V      -0.517500
     16 O17          2.1790    -6.4540    23.1250 o          1 T6V      -0.517500
     17 S15          3.3680    -6.3020    23.9730 sy         1 T6V       1.036100
     18 H101         9.1620    -4.0010    25.6300 ha         1 T6V       0.121500
     19 H131         6.2760    -7.8500    22.2820 ha         1 T6V       0.204000
     20 H031         7.9090    -2.6460    19.8670 hc         1 T6V       0.067700
     21 H032         8.1880    -2.8130    21.6460 hc         1 T6V       0.067700
     22 H1           8.7540    -4.0580    20.6230 hc         1 T6V       0.067700
     23 H071         8.4570    -6.8660    21.6140 ha         1 T6V       0.121000
     24 H081        10.4550    -7.2130    23.0520 ha         1 T6V       0.121500
     25 H091        10.8050    -5.7910    25.0700 ha         1 T6V       0.121000
     26 H111         7.1630    -3.6500    24.1950 ha         1 T6V       0.121000
     27 H121         4.6460    -5.8040    21.1980 h1         1 T6V       0.119700
     28 H141         4.4510    -8.4900    24.0830 h4         1 T6V       0.244000
     29 H182         3.8550    -4.1840    22.9320 h1         1 T6V       0.118200
     30 H181         5.1160    -4.7290    24.0920 h1         1 T6V       0.118200
@<TRIPOS>BOND
     1     1     8 ar  
     2     1     9 ar  
     3     1    18 1   
     4     2    10 1   
     5     2    11 2   
     6     2    19 1   
     7     3     4 1   
     8     3    13 1   
     9     3    14 2   
    10     4    20 1   
    11     4    21 1   
    12     4    22 1   
    13     5     6 ar  
    14     5     9 ar  
    15     5    13 1   
    16     6     7 ar  
    17     6    23 1   
    18     7     8 ar  
    19     7    24 1   
    20     8    25 1   
    21     9    26 1   
    22    10    12 1   
    23    10    13 1   
    24    10    27 1   
    25    11    17 1   
    26    11    28 1   
    27    12    17 1   
    28    12    29 1   
    29    12    30 1   
    30    15    17 2   
    31    16    17 2   
@<TRIPOS>SUBSTRUCTURE
     1 T6V         1 TEMP              0 ****  ****    0 ROOT
