@<TRIPOS>MOLECULE
T6V
   30    31     1     0     0
SMALL
abcg2


@<TRIPOS>ATOM
      1 C10          8.7350    -4.5590    24.8350 ca         1 T6V      -0.097000
      2 C13          5.3320    -7.0460    22.1410 c2         1 T6V      -0.098200
      3 C02          6.7410    -4.0590    20.7990 c          1 T6V       0.612100
      4 C03          8.1150    -3.4520    20.6600 c3         1 T6V      -0.169100
      5 C06          7.5720    -5.1860    22.8210 ca         1 T6V      -0.070000
      6 C07          8.3530    -6.3350    22.7260 ca         1 T6V      -0.109500
      7 C08          9.3220    -6.5940    23.6880 ca         1 T6V      -0.097000
      8 C09          9.5130    -5.7080    24.7440 ca         1 T6V      -0.097000
      9 C11          7.7630    -4.2970    23.8750 ca         1 T6V      -0.109500
     10 C12          5.2380    -5.5440    22.0280 c5         1 T6V       0.146900
     11 C14          4.7570    -7.6210    23.1850 ce         1 T6V      -0.364100
     12 C18          4.4740    -5.0100    23.2580 c5         1 T6V      -0.318400
     13 N05          6.5540    -4.9270    21.8430 n          1 T6V      -0.249400
     14 O01          5.8360    -3.7910    20.0130 o          1 T6V      -0.594100
     15 O16          4.7070    -6.4230    25.5440 o          1 T6V      -0.517500
     16 O17          2.5800    -6.6160    24.2960 o          1 T6V      -0.517500
     17 S15          4.0220    -6.4430    24.2620 sy         1 T6V       1.036100
     18 H101         8.8840    -3.8630    25.6510 ha         1 T6V       0.121500
     19 H131         5.8410    -7.5990    21.3620 ha         1 T6V       0.204000
     20 H031         8.1710    -2.9450    19.7000 hc         1 T6V       0.067700
     21 H032         8.2910    -2.7280    21.4570 hc         1 T6V       0.067700
     22 H1           8.8970    -4.2090    20.7270 hc         1 T6V       0.067700
     23 H071         8.2110    -7.0110    21.8940 ha         1 T6V       0.121000
     24 H081         9.9300    -7.4860    23.6080 ha         1 T6V       0.121500
     25 H091        10.2700    -5.9110    25.4910 ha         1 T6V       0.121000
     26 H111         7.1620    -3.3990    23.9330 ha         1 T6V       0.121000
     27 H121         4.6800    -5.2990    21.1260 h1         1 T6V       0.119700
     28 H141         4.6940    -8.6720    23.4280 h4         1 T6V       0.244000
     29 H182         3.5530    -4.5030    22.9840 h1         1 T6V       0.118200
     30 H181         5.0830    -4.3630    23.8810 h1         1 T6V       0.118200
@<TRIPOS>BOND
     1     1     8 ar  
     2     1     9 ar  
     3     1    18 1   
     4     2    10 1   
     5     2    11 2   
     6     2    19 1   
     7     3     4 1   
     8     3    13 1   
     9     3    14 2   
    10     4    20 1   
    11     4    21 1   
    12     4    22 1   
    13     5     6 ar  
    14     5     9 ar  
    15     5    13 1   
    16     6     7 ar  
    17     6    23 1   
    18     7     8 ar  
    19     7    24 1   
    20     8    25 1   
    21     9    26 1   
    22    10    12 1   
    23    10    13 1   
    24    10    27 1   
    25    11    17 1   
    26    11    28 1   
    27    12    17 1   
    28    12    29 1   
    29    12    30 1   
    30    15    17 2   
    31    16    17 2   
@<TRIPOS>SUBSTRUCTURE
     1 T6V         1 TEMP              0 ****  ****    0 ROOT
