@<TRIPOS>MOLECULE
T6X
   70    73     1     0     0
SMALL
No Charge or Current Charge


@<TRIPOS>ATOM
      1 C1         110.3990    54.4710   -47.8050 c3         1 T6X       0.225800
      2 C10       -115.8930    57.6140   -49.3960 c3         1 T6X       0.234500
      3 C11        116.2090    58.3720   -48.0650 c3         1 T6X       0.130600
      4 C12       -115.8050    58.5350   -50.6450 c3         1 T6X      -0.077400
      5 C13        114.7350    59.6510   -50.5830 c3         1 T6X      -0.092100
      6 C14       -110.0710    55.1660   -46.4610 c3         1 T6X      -0.100400
      7 C15        111.0290    56.3230   -46.0720 c3         1 T6X      -0.075400
      8 C16       -110.6600    57.0500   -44.7570 c3         1 T6X      -0.075400
      9 C17        109.3340    57.8470   -44.8100 c3         1 T6X      -0.035100
     10 C18       -109.1040    58.6750   -43.5430 ca         1 T6X      -0.064300
     11 C19        108.2420    58.1500   -42.5580 ca         1 T6X      -0.108000
     12 C2        -112.9340    54.1230   -47.8220 ca         1 T6X       0.476900
     13 C20        107.9870    58.8580   -41.3740 ca         1 T6X      -0.103000
     14 C21       -108.5920    60.1030   -41.1570 ca         1 T6X      -0.102000
     15 C22        109.4580    60.6440   -42.1240 ca         1 T6X      -0.036000
     16 C23       -109.7240    59.9370   -43.3240 ca         1 T6X      -0.030000
     17 C24        110.0590    61.8960   -41.8850 ca         1 T6X      -0.099000
     18 C25       -110.9290    62.4550   -42.8330 ca         1 T6X      -0.109000
     19 C26        111.2020    61.7640   -44.0230 ca         1 T6X      -0.114000
     20 C27       -110.6060    60.5160   -44.2690 ca         1 T6X      -0.100000
     21 C3         114.4410    55.6630   -48.5650 ca         1 T6X       0.414900
     22 C4        -115.2540    53.9490   -47.2990 ca         1 T6X       0.165500
     23 C5         113.9870    53.4360   -47.1860 ca         1 T6X      -0.138600
     24 C6        -115.2300    52.0790   -46.0620 cc         1 T6X       0.390700
     25 C8         118.2680    53.1260   -47.7480 c3         1 T6X      -0.108100
     26 C9        -117.8700    54.5290   -45.6380 c3         1 T6X      -0.108100
     27 N1         111.6280    53.6620   -47.7250 nu         1 T6X      -0.916100
     28 N2        -113.1640    55.2480   -48.5230 nb         1 T6X      -0.351000
     29 N3         115.5110    55.0740   -47.9910 nb         1 T6X      -0.279000
     30 N4        -113.9440    52.2650   -46.4160 nd         1 T6X      -0.548100
     31 N5         116.0430    53.0880   -46.5850 na         1 T6X      -0.295300
     32 N6        -114.6460    56.8260   -49.2830 nu         1 T6X      -0.907100
     33 O1         117.4650    59.0720   -48.1350 oh         1 T6X      -0.666000
     34 H2        -109.5550    53.8090   -48.0490 h1         1 T6X       0.061700
     35 H1         110.4640    55.2160   -48.6100 h1         1 T6X       0.061700
     36 H13       -116.7300    56.9230   -49.5780 h1         1 T6X       0.092700
     37 H15        115.3940    59.0750   -47.8440 h1         1 T6X       0.027200
     38 H14       -116.2390    57.6470   -47.2410 h1         1 T6X       0.027200
     39 H18        115.6180    57.9130   -51.5290 hc         1 T6X       0.057700
     40 H17       -116.7850    59.0010   -50.8070 hc         1 T6X       0.057700
     41 H21        114.7330    60.2240   -51.5190 hc         1 T6X       0.032033
     42 H20       -114.9390    60.3500   -49.7640 hc         1 T6X       0.032033
     43 H19        113.7310    59.2330   -50.4430 hc         1 T6X       0.032033
     44 H23       -110.0510    54.4190   -45.6580 hc         1 T6X       0.043200
     45 H22        109.0530    55.5630   -46.5420 hc         1 T6X       0.043200
     46 H24       -111.0720    57.0540   -46.8900 hc         1 T6X       0.047200
     47 H25        112.0430    55.9240   -45.9550 hc         1 T6X       0.047200
     48 H26       -111.4780    57.7360   -44.5060 hc         1 T6X       0.044700
     49 H27        110.6100    56.3190   -43.9400 hc         1 T6X       0.044700
     50 H28       -108.5030    57.1450   -44.9460 hc         1 T6X       0.047200
     51 H29        109.3170    58.4860   -45.7000 hc         1 T6X       0.047200
     52 H30       -107.7660    57.1840   -42.7090 ha         1 T6X       0.111000
     53 H31        107.3190    58.4390   -40.6240 ha         1 T6X       0.113000
     54 H32       -108.3880    60.6450   -40.2360 ha         1 T6X       0.113000
     55 H33        109.8530    62.4360   -40.9640 ha         1 T6X       0.112000
     56 H34       -111.3920    63.4210   -42.6450 ha         1 T6X       0.113000
     57 H35        111.8780    62.1960   -44.7570 ha         1 T6X       0.110000
     58 H36       -110.8460    60.0120   -45.2000 ha         1 T6X       0.115000
     59 H4         115.6210    51.2710   -45.4540 h5         1 T6X       0.062800
     60 H5        -117.8310    52.4020   -45.7910 h1         1 T6X       0.049700
     61 H7         119.3500    53.1260   -47.5700 hc         1 T6X       0.051700
     62 H6        -118.0350    53.9620   -48.4180 hc         1 T6X       0.051700
     63 H8         118.0080    52.1920   -48.2590 hc         1 T6X       0.051700
     64 H11       -117.3310    54.5700   -44.6840 hc         1 T6X       0.051700
     65 H10        117.6220    55.4280   -46.2140 hc         1 T6X       0.051700
     66 H9        -118.9450    54.5500   -45.4210 hc         1 T6X       0.051700
     67 H3         111.5760    52.8080   -47.1690 hn         1 T6X       0.507000
     68 H12       -113.8040    57.2250   -49.6920 hn         1 T6X       0.485000
     69 H16        117.5940    59.5210   -47.2700 ho         1 T6X       0.443000
     70 C7        -117.5020    53.2450   -46.4130 c3         1 T6X       0.108300
@<TRIPOS>BOND
     1     1     6 1   
     2     1    27 1   
     3     1    34 1   
     4     1    35 1   
     5     2     3 1   
     6     2     4 1   
     7     2    32 1   
     8     2    36 1   
     9     3    33 1   
    10     3    37 1   
    11     3    38 1   
    12     4     5 1   
    13     4    39 1   
    14     4    40 1   
    15     5    41 1   
    16     5    42 1   
    17     5    43 1   
    18     6     7 1   
    19     6    44 1   
    20     6    45 1   
    21     7     8 1   
    22     7    46 1   
    23     7    47 1   
    24     8     9 1   
    25     8    48 1   
    26     8    49 1   
    27     9    10 1   
    28     9    50 1   
    29     9    51 1   
    30    10    11 ar  
    31    10    16 ar  
    32    11    13 ar  
    33    11    52 1   
    34    12    23 ar  
    35    12    27 1   
    36    12    28 ar  
    37    13    14 ar  
    38    13    53 1   
    39    14    15 ar  
    40    14    54 1   
    41    15    16 ar  
    42    15    17 ar  
    43    16    20 ar  
    44    17    18 ar  
    45    17    55 1   
    46    18    19 ar  
    47    18    56 1   
    48    19    20 ar  
    49    19    57 1   
    50    20    58 1   
    51    21    28 ar  
    52    21    29 ar  
    53    21    32 1   
    54    22    23 ar  
    55    22    29 ar  
    56    22    31 1   
    57    23    30 1   
    58    24    30 2   
    59    24    31 1   
    60    24    59 1   
    61    25    61 1   
    62    25    62 1   
    63    25    63 1   
    64    25    70 1   
    65    26    64 1   
    66    26    65 1   
    67    26    66 1   
    68    26    70 1   
    69    27    67 1   
    70    31    70 1   
    71    32    68 1   
    72    33    69 1   
    73    60    70 1   
@<TRIPOS>SUBSTRUCTURE
     1 T6X         1 TEMP              0 ****  ****    0 ROOT
