@<TRIPOS>MOLECULE
T6X
   70    73     1     0     0
SMALL
abcg2


@<TRIPOS>ATOM
      1 C1        -110.4310    54.1390   -47.6040 c3         1 T6X       0.225800
      2 C10       -115.3370    58.0360   -48.3710 c3         1 T6X       0.234500
      3 C11       -115.3660    58.4430   -46.8980 c3         1 T6X       0.130600
      4 C12       -115.2600    59.2260   -49.3330 c3         1 T6X      -0.077400
      5 C13       -114.0220    60.1110   -49.1870 c3         1 T6X      -0.092100
      6 C14       -109.9610    54.7510   -46.2790 c3         1 T6X      -0.100400
      7 C15       -110.9510    55.7480   -45.6780 c3         1 T6X      -0.075400
      8 C16       -110.4300    56.5220   -44.4690 c3         1 T6X      -0.075400
      9 C17       -109.2730    57.4850   -44.8130 c3         1 T6X      -0.035100
     10 C18       -109.2190    58.6830   -43.9020 ca         1 T6X      -0.064300
     11 C19       -108.2840    58.7540   -42.8950 ca         1 T6X      -0.108000
     12 C2        -112.9110    53.9850   -47.6570 ca         1 T6X       0.476900
     13 C20       -108.2300    59.8480   -42.0050 ca         1 T6X      -0.103000
     14 C21       -109.1190    60.8820   -42.1290 ca         1 T6X      -0.102000
     15 C22       -110.1000    60.8630   -43.1510 ca         1 T6X      -0.036000
     16 C23       -110.1570    59.7530   -44.0500 ca         1 T6X      -0.030000
     17 C24       -111.0260    61.9250   -43.3000 ca         1 T6X      -0.099000
     18 C25       -111.9760    61.9010   -44.2890 ca         1 T6X      -0.109000
     19 C26       -112.0380    60.8070   -45.1780 ca         1 T6X      -0.114000
     20 C27       -111.1540    59.7640   -45.0610 ca         1 T6X      -0.100000
     21 C3        -114.2420    55.8160   -48.1720 ca         1 T6X       0.414900
     22 C4        -115.2900    53.9820   -47.4750 ca         1 T6X       0.165500
     23 C5        -114.0940    53.2800   -47.3370 ca         1 T6X      -0.138600
     24 C6        -115.6330    51.9380   -46.7310 cc         1 T6X       0.390700
     25 C8        -118.2890    53.5660   -48.4310 c3         1 T6X      -0.108100
     26 C9        -118.0730    54.4470   -46.0550 c3         1 T6X      -0.108100
     27 N1        -111.6950    53.4190   -47.5150 nu         1 T6X      -0.916100
     28 N2        -113.0220    55.2410   -48.1000 nb         1 T6X      -0.351000
     29 N3        -115.4200    55.2540   -47.8770 nb         1 T6X      -0.279000
     30 N4        -114.3290    52.0000   -46.8650 nd         1 T6X      -0.548100
     31 N5        -116.2750    53.1050   -47.0820 na         1 T6X      -0.295300
     32 N6        -114.2330    57.1150   -48.6060 nu         1 T6X      -0.907100
     33 O1        -116.5190    59.2570   -46.6680 oh         1 T6X      -0.666000
     34 H2        -109.6800    53.4370   -47.9710 h1         1 T6X       0.061700
     35 H1        -110.5470    54.9220   -48.3520 h1         1 T6X       0.061700
     36 H13       -116.2590    57.4920   -48.5800 h1         1 T6X       0.092700
     37 H15       -114.4510    58.9860   -46.6410 h1         1 T6X       0.027200
     38 H14       -115.4080    57.5380   -46.2850 h1         1 T6X       0.027200
     39 H18       -115.3140    58.8340   -50.3520 hc         1 T6X       0.057700
     40 H17       -116.1560    59.8310   -49.1810 hc         1 T6X       0.057700
     41 H21       -114.0550    60.9250   -49.9140 hc         1 T6X       0.032033
     42 H20       -113.9600    60.5580   -48.1940 hc         1 T6X       0.032033
     43 H19       -113.0960    59.5590   -49.3640 hc         1 T6X       0.032033
     44 H23       -109.7590    53.9520   -45.5580 hc         1 T6X       0.043200
     45 H22       -109.0040    55.2430   -46.4780 hc         1 T6X       0.043200
     46 H24       -111.2440    56.4670   -46.4470 hc         1 T6X       0.047200
     47 H25       -111.8640    55.2180   -45.3950 hc         1 T6X       0.047200
     48 H26       -111.2580    57.0980   -44.0510 hc         1 T6X       0.044700
     49 H27       -110.1060    55.8350   -43.6810 hc         1 T6X       0.044700
     50 H28       -108.3200    56.9570   -44.7610 hc         1 T6X       0.047200
     51 H29       -109.3870    57.8170   -45.8490 hc         1 T6X       0.047200
     52 H30       -107.5690    57.9470   -42.7840 ha         1 T6X       0.111000
     53 H31       -107.4790    59.8620   -41.2250 ha         1 T6X       0.113000
     54 H32       -109.0860    61.7280   -41.4520 ha         1 T6X       0.113000
     55 H33       -110.9680    62.7610   -42.6130 ha         1 T6X       0.112000
     56 H34       -112.6790    62.7190   -44.3910 ha         1 T6X       0.113000
     57 H35       -112.7900    60.7910   -45.9570 ha         1 T6X       0.110000
     58 H36       -111.2210    58.9380   -45.7540 ha         1 T6X       0.115000
     59 H4        -116.1920    51.0820   -46.3860 h5         1 T6X       0.062800
     60 H5        -118.1350    52.3900   -46.6480 h1         1 T6X       0.049700
     61 H7        -119.3760    53.6350   -48.3810 hc         1 T6X       0.051700
     62 H6        -117.9030    54.4960   -48.8490 hc         1 T6X       0.051700
     63 H8        -118.0240    52.7450   -49.0990 hc         1 T6X       0.051700
     64 H11       -117.6640    54.2350   -45.0660 hc         1 T6X       0.051700
     65 H10       -117.6740    55.4000   -46.4030 hc         1 T6X       0.051700
     66 H9        -119.1570    54.5340   -45.9700 hc         1 T6X       0.051700
     67 H3        -111.6810    52.5060   -47.0870 hn         1 T6X       0.507000
     68 H12       -113.3090    57.5180   -48.6260 hn         1 T6X       0.485000
     69 H16       -116.5340    59.5050   -45.7360 ho         1 T6X       0.443000
     70 C7        -117.7270    53.3260   -47.0320 c3         1 T6X       0.108300
@<TRIPOS>BOND
     1     1     6 1   
     2     1    27 1   
     3     1    34 1   
     4     1    35 1   
     5     2     3 1   
     6     2     4 1   
     7     2    32 1   
     8     2    36 1   
     9     3    33 1   
    10     3    37 1   
    11     3    38 1   
    12     4     5 1   
    13     4    39 1   
    14     4    40 1   
    15     5    41 1   
    16     5    42 1   
    17     5    43 1   
    18     6     7 1   
    19     6    44 1   
    20     6    45 1   
    21     7     8 1   
    22     7    46 1   
    23     7    47 1   
    24     8     9 1   
    25     8    48 1   
    26     8    49 1   
    27     9    10 1   
    28     9    50 1   
    29     9    51 1   
    30    10    11 ar  
    31    10    16 ar  
    32    11    13 ar  
    33    11    52 1   
    34    12    23 ar  
    35    12    27 1   
    36    12    28 ar  
    37    13    14 ar  
    38    13    53 1   
    39    14    15 ar  
    40    14    54 1   
    41    15    16 ar  
    42    15    17 ar  
    43    16    20 ar  
    44    17    18 ar  
    45    17    55 1   
    46    18    19 ar  
    47    18    56 1   
    48    19    20 ar  
    49    19    57 1   
    50    20    58 1   
    51    21    28 ar  
    52    21    29 ar  
    53    21    32 1   
    54    22    23 ar  
    55    22    29 ar  
    56    22    31 1   
    57    23    30 1   
    58    24    30 2   
    59    24    31 1   
    60    24    59 1   
    61    25    61 1   
    62    25    62 1   
    63    25    63 1   
    64    25    70 1   
    65    26    64 1   
    66    26    65 1   
    67    26    66 1   
    68    26    70 1   
    69    27    67 1   
    70    31    70 1   
    71    32    68 1   
    72    33    69 1   
    73    60    70 1   
@<TRIPOS>SUBSTRUCTURE
     1 T6X         1 TEMP              0 ****  ****    0 ROOT
