@<TRIPOS>MOLECULE
T6Y
   31    32     1     0     0
SMALL
abcg2


@<TRIPOS>ATOM
      1 N1          -0.8880    -1.0800    -0.0770 n3         1 T6Y      -0.721600
      2 C4           0.2180    -1.6450    -0.8270 c3         1 T6Y       0.246100
      3 C5           1.5360    -1.1540    -0.3170 cc         1 T6Y      -0.215300
      4 C6           2.0490    -1.2900     0.9370 cd         1 T6Y      -0.106000
      5 C7           3.3180    -0.6770     1.0990 cd         1 T6Y      -0.124000
      6 C8           3.7390    -0.0810    -0.0470 cc         1 T6Y      -0.029000
      7 C10         -2.0900     0.9100     0.6630 c6         1 T6Y       0.099500
      8 N           -3.3490     0.2260     0.4210 n          1 T6Y      -0.416800
      9 C           -5.7390     0.0980    -0.0860 c3         1 T6Y      -0.178100
     10 O           -4.4950     2.1200    -0.0180 o          1 T6Y      -0.606100
     11 C1          -4.4730     0.9020     0.1040 c          1 T6Y       0.609100
     12 C2          -3.2390    -1.2140     0.5320 c6         1 T6Y       0.099500
     13 C3          -2.1410    -1.7310    -0.3840 c6         1 T6Y       0.147300
     14 C9          -0.9990     0.3560    -0.2330 c6         1 T6Y       0.147300
     15 S            2.6060    -0.2570    -1.3270 ss         1 T6Y       0.227000
     16 CL           5.2040     0.7580    -0.2960 cl         1 T6Y      -0.141000
     17 H8           0.1810    -2.7320    -0.7150 h1         1 T6Y       0.043200
     18 H7           0.1320    -1.4510    -1.9090 h1         1 T6Y       0.043200
     19 H9           1.5320    -1.8110     1.7300 ha         1 T6Y       0.144000
     20 H10          3.8870    -0.6820     2.0170 ha         1 T6Y       0.146000
     21 H13         -2.2150     1.9740     0.4870 h1         1 T6Y       0.060200
     22 H14         -1.8090     0.7760     1.7120 h1         1 T6Y       0.060200
     23 H           -6.0110    -0.4530     0.8150 hc         1 T6Y       0.059367
     24 H2          -6.5550     0.7750    -0.3260 hc         1 T6Y       0.059367
     25 H1          -5.6500    -0.6260    -0.8960 hc         1 T6Y       0.059367
     26 H3          -3.0000    -1.4830     1.5660 h1         1 T6Y       0.060200
     27 H4          -4.1790    -1.6980     0.2810 h1         1 T6Y       0.060200
     28 H5          -2.4470    -1.5830    -1.4350 h1         1 T6Y       0.041700
     29 H6          -2.0320    -2.8070    -0.2300 h1         1 T6Y       0.041700
     30 H11         -0.0530     0.8220     0.0470 h1         1 T6Y       0.041700
     31 H12         -1.2040     0.6410    -1.2800 h1         1 T6Y       0.041700
@<TRIPOS>BOND
     1     1     2 1   
     2     1    13 1   
     3     1    14 1   
     4     2     3 1   
     5     2    17 1   
     6     2    18 1   
     7     3     4 2   
     8     3    15 1   
     9     4     5 1   
    10     4    19 1   
    11     5     6 2   
    12     5    20 1   
    13     6    15 1   
    14     6    16 1   
    15     7     8 1   
    16     7    14 1   
    17     7    21 1   
    18     7    22 1   
    19     8    11 1   
    20     8    12 1   
    21     9    11 1   
    22     9    23 1   
    23     9    24 1   
    24     9    25 1   
    25    10    11 2   
    26    12    13 1   
    27    12    26 1   
    28    12    27 1   
    29    13    28 1   
    30    13    29 1   
    31    14    30 1   
    32    14    31 1   
@<TRIPOS>SUBSTRUCTURE
     1 T6Y         1 TEMP              0 ****  ****    0 ROOT
