@<TRIPOS>MOLECULE
T6Y
   31    32     1     0     0
SMALL
No Charge or Current Charge


@<TRIPOS>ATOM
      1 N1          -0.8310    -1.1360    -0.1730 n3         1 T6Y      -0.721600
      2 C4           0.3680    -1.7720    -0.7640 c3         1 T6Y       0.246100
      3 C5           1.6520    -1.2120    -0.2160 cc         1 T6Y      -0.215300
      4 C6           2.0350    -1.1040     1.1000 cd         1 T6Y      -0.106000
      5 C7           3.3220    -0.5230     1.2740 cd         1 T6Y      -0.124000
      6 C8           3.9200    -0.1880     0.0880 cc         1 T6Y      -0.029000
      7 C10         -2.1330     0.9880     0.2390 c6         1 T6Y       0.099500
      8 N           -3.4400     0.2730     0.0990 n          1 T6Y      -0.416800
      9 C           -5.9590     0.1790     0.3770 c3         1 T6Y      -0.178100
     10 O           -4.6140     2.0980     0.8530 o          1 T6Y      -0.606100
     11 C1          -4.6290     0.9290     0.4880 c          1 T6Y       0.609100
     12 C2          -3.3400    -1.2220     0.1190 c6         1 T6Y       0.099500
     13 C3          -2.0870    -1.8080    -0.5880 c6         1 T6Y       0.147300
     14 C9          -0.9310     0.3160    -0.4790 c6         1 T6Y       0.147300
     15 S            2.9030    -0.5860    -1.2920 ss         1 T6Y       0.227000
     16 Cl           5.4860     0.5410    -0.0880 cl         1 T6Y      -0.141000
     17 H8           0.3570    -2.8510    -0.5570 h1         1 T6Y       0.043200
     18 H7           0.3590    -1.6540    -1.8570 h1         1 T6Y       0.043200
     19 H9           1.4100    -1.4290     1.9270 ha         1 T6Y       0.144000
     20 H10          3.7820    -0.3590     2.2430 ha         1 T6Y       0.146000
     21 H13         -2.2310     2.0140    -0.1430 h1         1 T6Y       0.060200
     22 H14         -1.8970     1.0640     1.3090 h1         1 T6Y       0.060200
     23 H           -5.9340    -0.6990     1.0320 hc         1 T6Y       0.059367
     24 H2          -6.8200     0.8160     0.6060 hc         1 T6Y       0.059367
     25 H1          -6.0410    -0.2650    -0.6220 hc         1 T6Y       0.059367
     26 H3          -3.3310    -1.5510     1.1680 h1         1 T6Y       0.060200
     27 H4          -4.2250    -1.6690    -0.3520 h1         1 T6Y       0.060200
     28 H5          -2.2230    -1.7100    -1.6760 h1         1 T6Y       0.041700
     29 H6          -2.0370    -2.8850    -0.3690 h1         1 T6Y       0.041700
     30 H11         -0.0150     0.8440    -0.1770 h1         1 T6Y       0.041700
     31 H12         -1.0430     0.4650    -1.5630 h1         1 T6Y       0.041700
@<TRIPOS>BOND
     1     1     2 1   
     2     1    13 1   
     3     1    14 1   
     4     2     3 1   
     5     2    17 1   
     6     2    18 1   
     7     3     4 2   
     8     3    15 1   
     9     4     5 1   
    10     4    19 1   
    11     5     6 2   
    12     5    20 1   
    13     6    15 1   
    14     6    16 1   
    15     7     8 1   
    16     7    14 1   
    17     7    21 1   
    18     7    22 1   
    19     8    11 1   
    20     8    12 1   
    21     9    11 1   
    22     9    23 1   
    23     9    24 1   
    24     9    25 1   
    25    10    11 2   
    26    12    13 1   
    27    12    26 1   
    28    12    27 1   
    29    13    28 1   
    30    13    29 1   
    31    14    30 1   
    32    14    31 1   
@<TRIPOS>SUBSTRUCTURE
     1 T6Y         1 TEMP              0 ****  ****    0 ROOT
