@<TRIPOS>MOLECULE
T6Z
   27    28     1     0     0
SMALL
No Charge or Current Charge


@<TRIPOS>ATOM
      1 C01          3.3070     2.3100    -0.0030 c3         1 T6Z       0.078300
      2 C03          0.8290     2.0330    -0.0120 c          1 T6Z       0.563200
      3 C05         -0.3080     1.1140    -0.0180 cc         1 T6Z      -0.303200
      4 C06         -0.2090    -0.2590    -0.0210 cd         1 T6Z       0.103600
      5 C07         -1.4330    -1.1610    -0.0280 c3         1 T6Z      -0.358200
      6 C12          1.1490    -0.8480    -0.0180 ca         1 T6Z      -0.087800
      7 C13          1.3340    -2.2530    -0.0200 ca         1 T6Z      -0.048000
      8 C14          2.6220    -2.8090    -0.0160 ca         1 T6Z      -0.179000
      9 C15          3.7440    -1.9750    -0.0100 ca         1 T6Z      -0.109000
     10 C16          3.5780    -0.5830    -0.0080 ca         1 T6Z      -0.189000
     11 C17          2.2850    -0.0030    -0.0120 ca         1 T6Z       0.078600
     12 N02          2.1080     1.4310    -0.0090 n          1 T6Z      -0.295000
     13 O04          0.6600     3.2450    -0.0100 o          1 T6Z      -0.607000
     14 O09         -4.1090    -1.5610    -0.0390 o          1 T6Z      -0.923167
     15 O10         -3.3030     0.3890     1.1930 o          1 T6Z      -0.923167
     16 O11         -3.2930     0.3950    -1.2560 o          1 T6Z      -0.923167
     17 P08         -3.1280    -0.4400    -0.0330 p5         1 T6Z       1.288500
     18 H1           3.0430     3.3740    -0.0030 h1         1 T6Z       0.031700
     19 H2           3.9060     2.1070     0.8940 h1         1 T6Z       0.031700
     20 H3           3.9130     2.1080    -0.8960 h1         1 T6Z       0.031700
     21 H4          -1.2580     1.6280    -0.0210 ha         1 T6Z       0.283000
     22 H5          -1.4040    -1.8100    -0.9090 hc         1 T6Z       0.031200
     23 H6          -1.4110    -1.8140     0.8510 hc         1 T6Z       0.031200
     24 H7           0.4840    -2.9300    -0.0250 ha         1 T6Z       0.136000
     25 H8           2.7470    -3.8890    -0.0180 ha         1 T6Z       0.090000
     26 H9           4.7430    -2.4050    -0.0070 ha         1 T6Z       0.077000
     27 H10          4.4740     0.0300    -0.0020 ha         1 T6Z       0.090000
@<TRIPOS>BOND
     1     1    12 1   
     2     1    18 1   
     3     1    19 1   
     4     1    20 1   
     5     2     3 1   
     6     2    12 1   
     7     2    13 2   
     8     3     4 2   
     9     3    21 1   
    10     4     5 1   
    11     4     6 1   
    12     5    17 1   
    13     5    22 1   
    14     5    23 1   
    15     6     7 ar  
    16     6    11 ar  
    17     7     8 ar  
    18     7    24 1   
    19     8     9 ar  
    20     8    25 1   
    21     9    10 ar  
    22     9    26 1   
    23    10    11 ar  
    24    10    27 1   
    25    11    12 1   
    26    14    17 1   
    27    15    17 1   
    28    16    17 1   
@<TRIPOS>SUBSTRUCTURE
     1 T6Z         1 TEMP              0 ****  ****    0 ROOT
