@<TRIPOS>MOLECULE
T6Z
   27    28     1     0     0
SMALL
abcg2


@<TRIPOS>ATOM
      1 C01          3.2600     2.2370     0.0350 c3         1 T6Z       0.078300
      2 C03          0.8480     1.9770    -0.1930 c          1 T6Z       0.563200
      3 C05         -0.2910     1.0910    -0.2410 cc         1 T6Z      -0.303200
      4 C06         -0.2040    -0.2540    -0.1570 cd         1 T6Z       0.103600
      5 C07         -1.4160    -1.1340    -0.1920 c3         1 T6Z      -0.358200
      6 C12          1.1220    -0.8370    -0.0580 ca         1 T6Z      -0.087800
      7 C13          1.3290    -2.2230    -0.0370 ca         1 T6Z      -0.048000
      8 C14          2.5920    -2.7690     0.0450 ca         1 T6Z      -0.179000
      9 C15          3.6940    -1.9210     0.1120 ca         1 T6Z      -0.109000
     10 C16          3.5290    -0.5510     0.0880 ca         1 T6Z      -0.189000
     11 C17          2.2480     0.0120    -0.0040 ca         1 T6Z       0.078600
     12 N02          2.0870     1.3840    -0.0500 n          1 T6Z      -0.295000
     13 O04          0.7320     3.1990    -0.2640 o          1 T6Z      -0.607000
     14 O09         -4.0180    -1.6210     0.0880 o          1 T6Z      -0.923167
     15 O10         -2.9740     0.1550     1.6270 o          1 T6Z      -0.923167
     16 O11         -3.3620     0.6720    -0.8630 o          1 T6Z      -0.923167
     17 P08         -3.0980    -0.3990     0.2060 p5         1 T6Z       1.288500
     18 H1           2.9440     3.2720     0.0050 h1         1 T6Z       0.031700
     19 H2           3.7970     2.0640     0.9680 h1         1 T6Z       0.031700
     20 H3           3.9380     2.0550    -0.7980 h1         1 T6Z       0.031700
     21 H4          -1.2570     1.5620    -0.3610 ha         1 T6Z       0.283000
     22 H5          -1.4620    -1.5990    -1.1850 hc         1 T6Z       0.031200
     23 H6          -1.2650    -1.9680     0.5010 hc         1 T6Z       0.031200
     24 H7           0.4740    -2.8820    -0.0960 ha         1 T6Z       0.136000
     25 H8           2.7220    -3.8420     0.0540 ha         1 T6Z       0.090000
     26 H9           4.6940    -2.3300     0.1800 ha         1 T6Z       0.077000
     27 H10          4.4070     0.0750     0.1340 ha         1 T6Z       0.090000
@<TRIPOS>BOND
     1     1    12 1   
     2     1    18 1   
     3     1    19 1   
     4     1    20 1   
     5     2     3 1   
     6     2    12 1   
     7     2    13 2   
     8     3     4 2   
     9     3    21 1   
    10     4     5 1   
    11     4     6 1   
    12     5    17 1   
    13     5    22 1   
    14     5    23 1   
    15     6     7 ar  
    16     6    11 ar  
    17     7     8 ar  
    18     7    24 1   
    19     8     9 ar  
    20     8    25 1   
    21     9    10 ar  
    22     9    26 1   
    23    10    11 ar  
    24    10    27 1   
    25    11    12 1   
    26    14    17 1   
    27    15    17 1   
    28    16    17 1   
@<TRIPOS>SUBSTRUCTURE
     1 T6Z         1 TEMP              0 ****  ****    0 ROOT
