@<TRIPOS>MOLECULE
T70
   43    46     1     0     0
SMALL
abcg2


@<TRIPOS>ATOM
      1 N12         88.3410   136.5310   141.8090 nv         1 T70      -1.055000
      2 C15         85.8750   136.9180   139.7190 ca         1 T70       0.033000
      3 C17         88.2060   135.1170   138.8130 ca         1 T70       0.238100
      4 C20         89.2390   136.0560   136.8810 ca         1 T70       0.309000
      5 C21         89.4210   134.5070   139.1420 ca         1 T70       0.041000
      6 C22         88.1170   135.8890   137.6610 ca         1 T70      -0.246000
      7 C24         88.0390   137.5730   140.9840 cc         1 T70       0.270000
      8 C26         87.2830   139.0400   139.5170 cd         1 T70       0.287900
      9 C28         83.6380   135.3680   138.9700 ca         1 T70      -0.104000
     10 C14         90.4520   135.4710   137.2060 ca         1 T70      -0.352500
     11 C16         85.9780   135.5460   139.4770 ca         1 T70       0.072100
     12 C18         87.0090   137.7660   140.0650 cd         1 T70      -0.266000
     13 C19         90.5330   134.6840   138.3460 ca         1 T70       0.064000
     14 C23         84.6120   137.4970   139.5580 ca         1 T70      -0.101000
     15 C25         84.8830   134.7790   139.1170 ca         1 T70      -0.095000
     16 C27         83.5220   136.7320   139.1850 ca         1 T70       0.125000
     17 C29         91.4110   133.7390   134.4830 cc         1 T70       0.546900
     18 C30         91.5170   133.1750   133.2470 cd         1 T70      -0.328000
     19 C31         91.0930   131.6640   135.0750 cd         1 T70       0.430300
     20 F05         89.1400   136.7880   135.7750 f          1 T70      -0.156000
     21 N09         91.4820   135.1020   134.7480 nu         1 T70      -0.886000
     22 N10         88.8080   138.6740   140.9090 na         1 T70      -0.048200
     23 N11         88.3650   139.5800   140.0190 nc         1 T70      -0.509800
     24 N13         91.1710   132.8820   135.5090 nc         1 T70      -0.667000
     25 O06         87.1760   134.8880   139.6380 os         1 T70      -0.231200
     26 O07         92.0310   137.1650   135.9710 o          1 T70      -0.532000
     27 O08         92.9780   135.0080   136.8200 o          1 T70      -0.532000
     28 S03         91.8860   135.7440   136.2140 sy         1 T70       1.220600
     29 S04         91.2910   131.4840   133.3870 ss         1 T70       0.015600
     30 CL01        89.5160   133.4990   140.5340 cl         1 T70      -0.174000
     31 CL02        81.9770   137.4940   139.0050 cl         1 T70      -0.193000
     32 H1          88.9030   136.7570   142.6140 hn         1 T70       0.468000
     33 H2          87.5720   135.9280   142.0480 hn         1 T70       0.468000
     34 H3          87.1870   136.3550   137.3610 ha         1 T70       0.151000
     35 H4          86.7160   139.5520   138.7520 h4         1 T70       0.039100
     36 H5          82.7810   134.7720   138.6880 ha         1 T70       0.136000
     37 H6          91.4640   134.2040   138.6120 ha         1 T70       0.161000
     38 H7          84.4920   138.5560   139.7460 ha         1 T70       0.138000
     39 H8          85.0050   133.7170   138.9450 ha         1 T70       0.136000
     40 H9          91.7060   133.6570   132.3010 h4         1 T70       0.167000
     41 H10         90.9100   130.8110   135.7140 h5         1 T70       0.059100
     42 H11         91.5360   135.7480   133.9700 hn         1 T70       0.525000
     43 H12         89.6340   138.8670   141.4540 hn         1 T70       0.373000
@<TRIPOS>BOND
     1     1     7 1   
     2     1    32 1   
     3     1    33 1   
     4     2    11 ar  
     5     2    12 1   
     6     2    14 ar  
     7     3     5 ar  
     8     3     6 ar  
     9     3    25 1   
    10     4     6 ar  
    11     4    10 ar  
    12     4    20 1   
    13     5    13 ar  
    14     5    30 1   
    15     6    34 1   
    16     7    12 2   
    17     7    22 1   
    18     8    12 1   
    19     8    23 2   
    20     8    35 1   
    21     9    15 ar  
    22     9    16 ar  
    23     9    36 1   
    24    10    13 ar  
    25    10    28 1   
    26    11    15 ar  
    27    11    25 1   
    28    13    37 1   
    29    14    16 ar  
    30    14    38 1   
    31    15    39 1   
    32    16    31 1   
    33    17    18 2   
    34    17    21 1   
    35    17    24 1   
    36    18    29 1   
    37    18    40 1   
    38    19    24 2   
    39    19    29 1   
    40    19    41 1   
    41    21    28 1   
    42    21    42 1   
    43    22    23 1   
    44    22    43 1   
    45    26    28 2   
    46    27    28 2   
@<TRIPOS>SUBSTRUCTURE
     1 T70         1 TEMP              0 ****  ****    0 ROOT
