@<TRIPOS>MOLECULE
T70
   43    46     1     0     0
SMALL
No Charge or Current Charge


@<TRIPOS>ATOM
      1 N12         88.3610   136.5410   141.8600 nv         1 T70      -1.055000
      2 C15         85.8230   137.0160   139.8790 ca         1 T70       0.033000
      3 C17         88.2910   135.2110   138.8350 ca         1 T70       0.238100
      4 C20         89.1810   136.1590   136.7740 ca         1 T70       0.309000
      5 C21         89.5220   134.5640   139.0630 ca         1 T70       0.041000
      6 C22         88.1250   136.0040   137.6820 ca         1 T70      -0.246000
      7 C24         87.9350   137.6700   141.2320 cc         1 T70       0.270000
      8 C26         86.9070   139.3300   140.1920 cd         1 T70       0.287900
      9 C28         83.7480   135.3930   138.8060 ca         1 T70      -0.104000
     10 C14         90.4120   135.5290   137.0080 ca         1 T70      -0.352500
     11 C16         86.0370   135.6330   139.6100 ca         1 T70       0.072100
     12 C18         86.8420   137.9350   140.4530 cd         1 T70      -0.266000
     13 C19         90.5790   134.7220   138.1520 ca         1 T70       0.064000
     14 C23         84.5570   137.5600   139.5590 ca         1 T70      -0.101000
     15 C25         85.0040   134.8350   139.0880 ca         1 T70      -0.095000
     16 C27         83.5320   136.7570   139.0350 ca         1 T70       0.125000
     17 C29         91.3940   133.5120   134.3930 cc         1 T70       0.546900
     18 C30         91.9780   132.8400   133.3630 cd         1 T70      -0.328000
     19 C31         90.9260   131.4880   135.0840 cd         1 T70       0.430300
     20 F05         88.9760   136.9140   135.6730 f          1 T70      -0.156000
     21 N09         91.3020   134.8460   134.4920 nu         1 T70      -0.886000
     22 N10         88.5550   138.8950   141.4230 na         1 T70      -0.048200
     23 N11         87.9270   139.9400   140.7700 nc         1 T70      -0.509800
     24 N13         90.7810   132.7800   135.3560 nc         1 T70      -0.667000
     25 O06         87.2690   135.0420   139.7520 os         1 T70      -0.231200
     26 O07         91.8120   137.0760   135.3430 o          1 T70      -0.532000
     27 O08         92.9490   135.0120   136.3370 o          1 T70      -0.532000
     28 S03         91.7530   135.7030   135.8460 sy         1 T70       1.220600
     29 S04         91.8160   131.1120   133.6080 ss         1 T70       0.015600
     30 Cl01        89.7570   133.5440   140.4850 cl         1 T70      -0.174000
     31 Cl02        81.9640   137.4670   138.6720 cl         1 T70      -0.193000
     32 H1          89.2910   136.5110   142.2740 hn         1 T70       0.468000
     33 H2          87.9780   135.6520   141.5430 hn         1 T70       0.468000
     34 H3          87.1840   136.5020   137.4730 ha         1 T70       0.151000
     35 H4          86.2350   139.9210   139.5810 h4         1 T70       0.039100
     36 H5          82.9520   134.7750   138.3990 ha         1 T70       0.136000
     37 H6          91.5190   134.2070   138.3420 ha         1 T70       0.161000
     38 H7          84.3470   138.6090   139.7430 ha         1 T70       0.138000
     39 H8          85.1870   133.7830   138.8820 ha         1 T70       0.136000
     40 H9          92.4830   133.2410   132.4950 h4         1 T70       0.167000
     41 H10         90.5370   130.6810   135.6930 h5         1 T70       0.059100
     42 H11         91.7830   135.3240   133.7500 hn         1 T70       0.525000
     43 H12         89.3860   139.0470   141.9870 hn         1 T70       0.373000
@<TRIPOS>BOND
     1     1     7 1   
     2     1    32 1   
     3     1    33 1   
     4     2    11 ar  
     5     2    12 1   
     6     2    14 ar  
     7     3     5 ar  
     8     3     6 ar  
     9     3    25 1   
    10     4     6 ar  
    11     4    10 ar  
    12     4    20 1   
    13     5    13 ar  
    14     5    30 1   
    15     6    34 1   
    16     7    12 2   
    17     7    22 1   
    18     8    12 1   
    19     8    23 2   
    20     8    35 1   
    21     9    15 ar  
    22     9    16 ar  
    23     9    36 1   
    24    10    13 ar  
    25    10    28 1   
    26    11    15 ar  
    27    11    25 1   
    28    13    37 1   
    29    14    16 ar  
    30    14    38 1   
    31    15    39 1   
    32    16    31 1   
    33    17    18 2   
    34    17    21 1   
    35    17    24 1   
    36    18    29 1   
    37    18    40 1   
    38    19    24 2   
    39    19    29 1   
    40    19    41 1   
    41    21    28 1   
    42    21    42 1   
    43    22    23 1   
    44    22    43 1   
    45    26    28 2   
    46    27    28 2   
@<TRIPOS>SUBSTRUCTURE
     1 T70         1 TEMP              0 ****  ****    0 ROOT
