@<TRIPOS>MOLECULE
T71
   40    41     1     0     0
SMALL
abcg2


@<TRIPOS>ATOM
      1 N1           7.2270    -3.4290    21.0190 n          1 T71      -0.420800
      2 C4           8.9960    -4.0490    26.0640 ca         1 T71       0.030700
      3 C5          10.0670    -3.7340    25.0580 c3         1 T71      -0.074800
      4 C6           7.7940    -3.3340    26.1930 ca         1 T71      -0.273500
      5 C7           6.8230    -3.6870    27.1280 ca         1 T71      -0.024000
      6 C8           7.9120    -1.6590    22.5660 c6         1 T71       0.186300
      7 C10          6.8080    -4.2870    22.1200 c6         1 T71       0.099000
      8 C13          7.0590    -2.5150    18.7440 c3         1 T71      -0.173100
      9 N            7.4870    -2.5340    23.6680 n3         1 T71      -0.771500
     10 O            8.5390    -0.9600    25.2840 o          1 T71      -0.554000
     11 C1           7.0100    -4.7690    27.9830 ca         1 T71      -0.099300
     12 C11          6.3880    -3.4450    23.3160 c6         1 T71       0.186300
     13 C12          6.5800    -3.4570    19.8270 c          1 T71       0.604100
     14 C2           8.1990    -5.4880    27.8620 ca         1 T71      -0.053000
     15 C3           9.1620    -5.1320    26.9270 ca         1 T71      -0.135000
     16 C9           8.3110    -2.5240    21.3770 c6         1 T71       0.099000
     17 O1           6.1280    -1.4300    25.5290 o          1 T71      -0.554000
     18 O2           5.6340    -4.2230    19.6190 o          1 T71      -0.606100
     19 S            7.4520    -1.9110    25.1880 sy         1 T71       1.183600
     20 H7           9.7200    -3.9430    24.0450 hc         1 T71       0.060367
     21 H6          10.3510    -2.6830    25.0850 hc         1 T71       0.060367
     22 H5          10.9490    -4.3420    25.2540 hc         1 T71       0.060367
     23 H8           5.9110    -3.1100    27.1810 ha         1 T71       0.142000
     24 H10          7.1000    -0.9830    22.2750 h1         1 T71       0.064450
     25 H9           8.7630    -1.0690    22.8930 h1         1 T71       0.064450
     26 H14          5.9790    -4.9040    21.7880 h1         1 T71       0.063950
     27 H13          7.6440    -4.9340    22.4040 h1         1 T71       0.063950
     28 H19          6.4670    -2.7000    17.8520 hc         1 T71       0.062367
     29 H17          6.9360    -1.4730    19.0440 hc         1 T71       0.062367
     30 H18          8.1140    -2.6740    18.5140 hc         1 T71       0.062367
     31 H2           6.2360    -4.7160    29.9870 hc         1 T71       0.046700
     32 H            4.9930    -4.7430    28.7360 hc         1 T71       0.046700
     33 H1           5.8990    -6.2150    29.1270 hc         1 T71       0.046700
     34 H16          5.4820    -2.8780    23.0790 h1         1 T71       0.064450
     35 H15          6.1790    -4.0980    24.1620 h1         1 T71       0.064450
     36 H3           8.3740    -6.3410    28.5070 ha         1 T71       0.116000
     37 H4          10.0740    -5.7120    26.8580 ha         1 T71       0.115000
     38 H12          8.5660    -1.8810    20.5420 h1         1 T71       0.063950
     39 H11          9.1930    -3.1170    21.6370 h1         1 T71       0.063950
     40 C            5.9740    -5.1330    29.0110 c3         1 T71      -0.046800
@<TRIPOS>BOND
     1     1     7 1   
     2     1    13 1   
     3     1    16 1   
     4     2     3 1   
     5     2     4 ar  
     6     2    15 ar  
     7     3    20 1   
     8     3    21 1   
     9     3    22 1   
    10     4     5 ar  
    11     4    19 1   
    12     5    11 ar  
    13     5    23 1   
    14     6     9 1   
    15     6    16 1   
    16     6    24 1   
    17     6    25 1   
    18     7    12 1   
    19     7    26 1   
    20     7    27 1   
    21     8    13 1   
    22     8    28 1   
    23     8    29 1   
    24     8    30 1   
    25     9    12 1   
    26     9    19 1   
    27    10    19 2   
    28    11    14 ar  
    29    11    40 1   
    30    12    34 1   
    31    12    35 1   
    32    13    18 2   
    33    14    15 ar  
    34    14    36 1   
    35    15    37 1   
    36    16    38 1   
    37    16    39 1   
    38    17    19 2   
    39    31    40 1   
    40    32    40 1   
    41    33    40 1   
@<TRIPOS>SUBSTRUCTURE
     1 T71         1 TEMP              0 ****  ****    0 ROOT
