@<TRIPOS>MOLECULE
T71
   40    41     1     0     0
SMALL
No Charge or Current Charge


@<TRIPOS>ATOM
      1 N1           6.9350    -3.2210    20.9390 n          1 T71      -0.420800
      2 C4           9.0990    -4.2180    26.2370 ca         1 T71       0.030700
      3 C5          10.3010    -4.0130    25.3170 c3         1 T71      -0.074800
      4 C6           7.9970    -3.3200    26.2880 ca         1 T71      -0.273500
      5 C7           6.9170    -3.5960    27.1580 ca         1 T71      -0.024000
      6 C8           7.6720    -1.4250    22.6290 c6         1 T71       0.186300
      7 C10          6.8110    -4.1590    22.0990 c6         1 T71       0.099000
      8 C13          6.9190    -2.7620    18.4460 c3         1 T71      -0.173100
      9 N            7.7810    -2.4590    23.6820 n3         1 T71      -0.771500
     10 O            9.2020    -1.1500    25.3160 o          1 T71      -0.554000
     11 C1           6.9200    -4.7400    27.9750 ca         1 T71      -0.099300
     12 C11          6.7250    -3.4830    23.4920 c6         1 T71       0.186300
     13 C12          6.7550    -3.7190    19.6290 c          1 T71       0.604100
     14 C2           8.0140    -5.6180    27.9280 ca         1 T71      -0.053000
     15 C3           9.0900    -5.3570    27.0670 ca         1 T71      -0.135000
     16 C9           7.7920    -2.0210    21.2010 c6         1 T71       0.099000
     17 O1           6.6490    -1.1120    25.5240 o          1 T71      -0.554000
     18 O2           6.4150    -4.8790    19.4360 o          1 T71      -0.606100
     19 S            7.9020    -1.8280    25.2580 sy         1 T71       1.183600
     20 H7           9.9960    -3.8580    24.2760 hc         1 T71       0.060367
     21 H6          10.9010    -3.1520    25.6330 hc         1 T71       0.060367
     22 H5          10.9660    -4.8840    25.3210 hc         1 T71       0.060367
     23 H8           6.0630    -2.9220    27.2050 ha         1 T71       0.142000
     24 H10          6.7070    -0.9000    22.7090 h1         1 T71       0.064450
     25 H9           8.4570    -0.6630    22.7460 h1         1 T71       0.064450
     26 H14          5.9220    -4.7920    21.9680 h1         1 T71       0.063950
     27 H13          7.6850    -4.8260    22.0940 h1         1 T71       0.063950
     28 H19          6.6530    -3.2270    17.4910 hc         1 T71       0.062367
     29 H17          6.3310    -1.8560    18.6300 hc         1 T71       0.062367
     30 H18          7.9480    -2.3850    18.4270 hc         1 T71       0.062367
     31 H2           5.8650    -4.4730    29.8520 hc         1 T71       0.046700
     32 H            4.7990    -4.7100    28.4560 hc         1 T71       0.046700
     33 H1           5.6690    -6.0860    29.1440 hc         1 T71       0.046700
     34 H16          5.7290    -3.0270    23.6010 h1         1 T71       0.064450
     35 H15          6.7950    -4.2780    24.2480 h1         1 T71       0.064450
     36 H3           8.0320    -6.5040    28.5590 ha         1 T71       0.116000
     37 H4           9.9250    -6.0530    27.0450 ha         1 T71       0.115000
     38 H12          7.5560    -1.2200    20.4870 h1         1 T71       0.063950
     39 H11          8.8400    -2.3050    21.0330 h1         1 T71       0.063950
     40 C            5.7500    -5.0180    28.9070 c3         1 T71      -0.046800
@<TRIPOS>BOND
     1     1     7 1   
     2     1    13 1   
     3     1    16 1   
     4     2     3 1   
     5     2     4 ar  
     6     2    15 ar  
     7     3    20 1   
     8     3    21 1   
     9     3    22 1   
    10     4     5 ar  
    11     4    19 1   
    12     5    11 ar  
    13     5    23 1   
    14     6     9 1   
    15     6    16 1   
    16     6    24 1   
    17     6    25 1   
    18     7    12 1   
    19     7    26 1   
    20     7    27 1   
    21     8    13 1   
    22     8    28 1   
    23     8    29 1   
    24     8    30 1   
    25     9    12 1   
    26     9    19 1   
    27    10    19 2   
    28    11    14 ar  
    29    11    40 1   
    30    12    34 1   
    31    12    35 1   
    32    13    18 2   
    33    14    15 ar  
    34    14    36 1   
    35    15    37 1   
    36    16    38 1   
    37    16    39 1   
    38    17    19 2   
    39    31    40 1   
    40    32    40 1   
    41    33    40 1   
@<TRIPOS>SUBSTRUCTURE
     1 T71         1 TEMP              0 ****  ****    0 ROOT
