@<TRIPOS>MOLECULE
T72
   42    44     1     0     0
SMALL
No Charge or Current Charge


@<TRIPOS>ATOM
      1 O2         -21.0320    -9.2570   -30.7770 o          1 T72      -0.733500
      2 C          -20.8640    -8.7470   -29.6800 c          1 T72       0.721000
      3 O          -20.8460    -9.3780   -28.6340 o          1 T72      -0.733500
      4 C1         -20.5780    -7.2400   -29.6200 c3         1 T72      -0.210400
      5 C2         -19.0510    -6.9770   -29.7390 c3         1 T72      -0.092700
      6 C3         -18.6830    -5.5200   -29.6900 cc         1 T72       0.502300
      7 O1         -18.7990    -4.7790   -30.8270 os         1 T72      -0.268000
      8 C11        -18.3970    -3.5530   -30.4210 cc         1 T72       0.104500
      9 C12        -18.4940    -2.3970   -31.3090 ca         1 T72      -0.093500
     10 C19        -17.8930    -2.4400   -32.5790 ca         1 T72      -0.022500
     11 C17        -17.9750    -1.3320   -33.4490 ca         1 T72      -0.207300
     12 C18        -17.3130    -1.3740   -34.8310 c3         1 T72       0.359800
     13 F5         -16.8440    -0.1630   -35.2100 f          1 T72      -0.112333
     14 F4         -18.1880    -1.7740   -35.7810 f          1 T72      -0.112333
     15 F3         -16.2630    -2.2250   -34.8770 f          1 T72      -0.112333
     16 C16        -18.6940    -0.1890   -33.0410 ca         1 T72      -0.025000
     17 C14        -19.3260    -0.1440   -31.7800 ca         1 T72      -0.207300
     18 C15        -20.0980     1.1020   -31.3330 c3         1 T72       0.359800
     19 F2         -19.3130     1.9280   -30.6050 f          1 T72      -0.112333
     20 F1         -21.1660     0.7920   -30.5630 f          1 T72      -0.112333
     21 F          -20.5710     1.8230   -32.3760 f          1 T72      -0.112333
     22 C13        -19.2200    -1.2550   -30.9190 ca         1 T72      -0.022500
     23 C4         -18.0610    -3.5650   -29.0820 cd         1 T72       0.332500
     24 N          -18.2460    -4.8590   -28.6270 nd         1 T72      -0.689000
     25 C5         -17.4870    -2.5020   -28.2140 ca         1 T72      -0.112500
     26 C10        -17.4540    -2.6870   -26.8120 ca         1 T72      -0.086000
     27 C9         -16.8970    -1.7120   -25.9660 ca         1 T72      -0.119000
     28 C8         -16.3410    -0.5440   -26.5080 ca         1 T72      -0.110000
     29 C7         -16.3320    -0.3600   -27.8990 ca         1 T72      -0.119000
     30 C6         -16.8900    -1.3340   -28.7460 ca         1 T72      -0.086000
     31 H2         -20.8780    -6.8320   -28.6470 hc         1 T72       0.035200
     32 H3         -21.0390    -6.7290   -30.4750 hc         1 T72       0.035200
     33 H4         -18.6820    -7.4050   -30.6790 hc         1 T72       0.075200
     34 H5         -18.5290    -7.5070   -28.9340 hc         1 T72       0.075200
     35 H6         -17.3560    -3.3370   -32.8800 ha         1 T72       0.151000
     36 H7         -18.7640     0.6670   -33.7110 ha         1 T72       0.137000
     37 H8         -19.6960    -1.2340   -29.9400 ha         1 T72       0.151000
     38 H9         -17.8780    -3.5840   -26.3650 ha         1 T72       0.125000
     39 H10        -16.8940    -1.8650   -24.8890 ha         1 T72       0.109000
     40 H11        -15.9070     0.2090   -25.8540 ha         1 T72       0.105000
     41 H12        -15.8810     0.5340   -28.3240 ha         1 T72       0.109000
     42 H13        -16.8190    -1.1750   -29.8170 ha         1 T72       0.125000
@<TRIPOS>BOND
     1     1     2 1   
     2     2     3 1   
     3     2     4 1   
     4     4     5 1   
     5     4    31 1   
     6     4    32 1   
     7     5     6 1   
     8     5    33 1   
     9     5    34 1   
    10     6     7 1   
    11     6    24 2   
    12     7     8 1   
    13     8     9 1   
    14     8    23 2   
    15     9    10 ar  
    16     9    22 ar  
    17    10    11 ar  
    18    10    35 1   
    19    11    12 1   
    20    11    16 ar  
    21    12    13 1   
    22    12    14 1   
    23    12    15 1   
    24    16    17 ar  
    25    16    36 1   
    26    17    18 1   
    27    17    22 ar  
    28    18    19 1   
    29    18    20 1   
    30    18    21 1   
    31    22    37 1   
    32    23    24 1   
    33    23    25 1   
    34    25    26 ar  
    35    25    30 ar  
    36    26    27 ar  
    37    26    38 1   
    38    27    28 ar  
    39    27    39 1   
    40    28    29 ar  
    41    28    40 1   
    42    29    30 ar  
    43    29    41 1   
    44    30    42 1   
@<TRIPOS>SUBSTRUCTURE
     1 T72         1 TEMP              0 ****  ****    0 ROOT
