@<TRIPOS>MOLECULE
T72
   42    44     1     0     0
SMALL
abcg2


@<TRIPOS>ATOM
      1 O2         -20.3060    -9.3690   -30.2880 o          1 T72      -0.733500
      2 C          -19.6450    -9.1200   -29.2610 c          1 T72       0.721000
      3 O          -19.2640    -9.9350   -28.3980 o          1 T72      -0.733500
      4 C1         -19.2560    -7.6480   -29.0040 c3         1 T72      -0.210400
      5 C2         -19.5350    -6.7200   -30.1740 c3         1 T72      -0.092700
      6 C3         -19.1130    -5.3190   -29.9230 cc         1 T72       0.502300
      7 O1         -19.0880    -4.4780   -30.9660 os         1 T72      -0.268000
      8 C11        -18.6820    -3.2760   -30.4800 cc         1 T72       0.104500
      9 C12        -18.6030    -2.1790   -31.4300 ca         1 T72      -0.093500
     10 C19        -18.3020    -2.4310   -32.7670 ca         1 T72      -0.022500
     11 C17        -18.2290    -1.3870   -33.6780 ca         1 T72      -0.207300
     12 C18        -17.9420    -1.6810   -35.1220 c3         1 T72       0.359800
     13 F5         -17.3150    -0.6680   -35.7270 f          1 T72      -0.112333
     14 F4         -19.0700    -1.9040   -35.8090 f          1 T72      -0.112333
     15 F3         -17.1790    -2.7670   -35.2690 f          1 T72      -0.112333
     16 C16        -18.4570    -0.0820   -33.2730 ca         1 T72      -0.025000
     17 C14        -18.7640     0.1690   -31.9410 ca         1 T72      -0.207300
     18 C15        -19.0120     1.5900   -31.5300 c3         1 T72       0.359800
     19 F2         -19.2510     1.7140   -30.2230 f          1 T72      -0.112333
     20 F1         -20.0620     2.1120   -32.1760 f          1 T72      -0.112333
     21 F          -17.9600     2.3680   -31.8150 f          1 T72      -0.112333
     22 C13        -18.8460    -0.8650   -31.0260 ca         1 T72      -0.022500
     23 C4         -18.4580    -3.4470   -29.1470 cd         1 T72       0.332500
     24 N          -18.7550    -4.7550   -28.8220 nd         1 T72      -0.689000
     25 C5         -17.9560    -2.5200   -28.1310 ca         1 T72      -0.112500
     26 C10        -18.4490    -2.5930   -26.8280 ca         1 T72      -0.086000
     27 C9         -17.9770    -1.7330   -25.8480 ca         1 T72      -0.119000
     28 C8         -17.0000    -0.7950   -26.1540 ca         1 T72      -0.110000
     29 C7         -16.4920    -0.7270   -27.4450 ca         1 T72      -0.119000
     30 C6         -16.9620    -1.5860   -28.4260 ca         1 T72      -0.086000
     31 H2         -18.1970    -7.6050   -28.7350 hc         1 T72       0.035200
     32 H3         -19.7940    -7.3010   -28.1160 hc         1 T72       0.035200
     33 H4         -20.6020    -6.7260   -30.4170 hc         1 T72       0.075200
     34 H5         -19.0270    -7.0760   -31.0730 hc         1 T72       0.075200
     35 H6         -18.1100    -3.4460   -33.0880 ha         1 T72       0.151000
     36 H7         -18.3980     0.7330   -33.9830 ha         1 T72       0.137000
     37 H8         -19.1110    -0.6700   -29.9960 ha         1 T72       0.151000
     38 H9         -19.2100    -3.3230   -26.5830 ha         1 T72       0.125000
     39 H10        -18.3730    -1.7960   -24.8430 ha         1 T72       0.109000
     40 H11        -16.6300    -0.1250   -25.3880 ha         1 T72       0.105000
     41 H12        -15.7180    -0.0100   -27.6880 ha         1 T72       0.109000
     42 H13        -16.5380    -1.5410   -29.4210 ha         1 T72       0.125000
@<TRIPOS>BOND
     1     1     2 1   
     2     2     3 1   
     3     2     4 1   
     4     4     5 1   
     5     4    31 1   
     6     4    32 1   
     7     5     6 1   
     8     5    33 1   
     9     5    34 1   
    10     6     7 1   
    11     6    24 2   
    12     7     8 1   
    13     8     9 1   
    14     8    23 2   
    15     9    10 ar  
    16     9    22 ar  
    17    10    11 ar  
    18    10    35 1   
    19    11    12 1   
    20    11    16 ar  
    21    12    13 1   
    22    12    14 1   
    23    12    15 1   
    24    16    17 ar  
    25    16    36 1   
    26    17    18 1   
    27    17    22 ar  
    28    18    19 1   
    29    18    20 1   
    30    18    21 1   
    31    22    37 1   
    32    23    24 1   
    33    23    25 1   
    34    25    26 ar  
    35    25    30 ar  
    36    26    27 ar  
    37    26    38 1   
    38    27    28 ar  
    39    27    39 1   
    40    28    29 ar  
    41    28    40 1   
    42    29    30 ar  
    43    29    41 1   
    44    30    42 1   
@<TRIPOS>SUBSTRUCTURE
     1 T72         1 TEMP              0 ****  ****    0 ROOT
