@<TRIPOS>MOLECULE
T73
   42    44     1     0     0
SMALL
bcc


@<TRIPOS>ATOM
      1 O1           0.7320     2.1770     0.6700 o          1 T73      -0.549000
      2 C8           0.9230     1.0490     0.2750 c          1 T73       0.664700
      3 O           -0.0480     0.2200    -0.0710 os         1 T73      -0.416900
      4 C6          -1.3990     0.6850    -0.0050 c5         1 T73       0.155100
      5 C7          -1.9590     0.8080     1.4300 c5         1 T73      -0.094400
      6 C2          -3.1790    -0.1200     1.3980 c5         1 T73      -0.064700
      7 C5          -2.3260    -0.3380    -0.6840 c5         1 T73      -0.048000
      8 C15         -2.2340    -0.3390    -2.1950 c3         1 T73      -0.071100
      9 C4          -2.0710    -1.7110    -0.0350 c5         1 T73      -0.068400
     10 C3          -2.6430    -1.5600     1.3950 c5         1 T73      -0.076400
     11 C1          -3.6930     0.0590    -0.0490 c5         1 T73      -0.049000
     12 C16         -4.8460    -0.8720    -0.4170 c3         1 T73      -0.079100
     13 C           -4.1580     1.4790    -0.3780 c3         1 T73      -0.079100
     14 C9           2.2640     0.4460     0.1240 ca         1 T73      -0.185600
     15 C14          3.3820     1.2060     0.4640 ca         1 T73      -0.032000
     16 C13          4.6590     0.6940     0.3350 ca         1 T73      -0.216000
     17 C12          4.8410    -0.6030    -0.1440 ca         1 T73       0.170100
     18 O2           6.0530    -1.1540    -0.2940 oh         1 T73      -0.488100
     19 C11          3.7300    -1.3750    -0.4860 ca         1 T73      -0.216000
     20 C10          2.4580    -0.8530    -0.3520 ca         1 T73      -0.032000
     21 H1          -1.4440     1.6430    -0.5280 h1         1 T73       0.062700
     22 H2          -1.2320     0.5020     2.1850 hc         1 T73       0.059200
     23 H3          -2.2290     1.8400     1.6510 hc         1 T73       0.059200
     24 H4          -3.9110     0.0790     2.1830 hc         1 T73       0.067700
     25 H5          -1.2300    -0.6070    -2.5300 hc         1 T73       0.038367
     26 H6          -2.9250    -1.0640    -2.6280 hc         1 T73       0.038367
     27 H7          -2.4700     0.6410    -2.6150 hc         1 T73       0.038367
     28 H8          -2.5990    -2.4860    -0.5950 hc         1 T73       0.047700
     29 H9          -1.0180    -1.9920    -0.0490 hc         1 T73       0.047700
     30 H10         -1.8850    -1.7020     2.1670 hc         1 T73       0.044200
     31 H11         -3.4310    -2.2890     1.5920 hc         1 T73       0.044200
     32 H12         -5.7490    -0.5710     0.1180 hc         1 T73       0.034867
     33 H13         -5.0700    -0.8050    -1.4840 hc         1 T73       0.034867
     34 H14         -4.6710    -1.9220    -0.1870 hc         1 T73       0.034867
     35 H15         -3.4210     2.2560    -0.1850 hc         1 T73       0.034867
     36 H16         -4.4400     1.5550    -1.4300 hc         1 T73       0.034867
     37 H17         -5.0440     1.7290     0.2090 hc         1 T73       0.034867
     38 H18          3.2560     2.2150     0.8350 ha         1 T73       0.151500
     39 H19          5.5150     1.3020     0.6040 ha         1 T73       0.143500
     40 H20          6.7450    -0.5290    -0.0470 ho         1 T73       0.431000
     41 H21          3.8700    -2.3820    -0.8590 ha         1 T73       0.143500
     42 H22          1.6140    -1.4710    -0.6250 ha         1 T73       0.151500
@<TRIPOS>BOND
     1     1     2 2   
     2     2     3 1   
     3     2    14 1   
     4     3     4 1   
     5     4     5 1   
     6     4     7 1   
     7     4    21 1   
     8     5     6 1   
     9     5    22 1   
    10     5    23 1   
    11     6    10 1   
    12     6    11 1   
    13     6    24 1   
    14     7     8 1   
    15     7     9 1   
    16     7    11 1   
    17     8    25 1   
    18     8    26 1   
    19     8    27 1   
    20     9    10 1   
    21     9    28 1   
    22     9    29 1   
    23    10    30 1   
    24    10    31 1   
    25    11    12 1   
    26    11    13 1   
    27    12    32 1   
    28    12    33 1   
    29    12    34 1   
    30    13    35 1   
    31    13    36 1   
    32    13    37 1   
    33    14    15 ar  
    34    14    20 ar  
    35    15    16 ar  
    36    15    38 1   
    37    16    17 ar  
    38    16    39 1   
    39    17    18 1   
    40    17    19 ar  
    41    18    40 1   
    42    19    20 ar  
    43    19    41 1   
    44    20    42 1   
@<TRIPOS>SUBSTRUCTURE
     1 T73         1 TEMP              0 ****  ****    0 ROOT
