@<TRIPOS>MOLECULE
T73
   42    44     1     0     0
SMALL
No Charge or Current Charge


@<TRIPOS>ATOM
      1 O1           0.7590     2.2280     0.5040 o          1 T73      -0.500000
      2 C8           0.9550     1.0640     0.1720 c          1 T73       0.615700
      3 O           -0.0360     0.1880    -0.2060 os         1 T73      -0.440100
      4 C6          -1.3930     0.7030    -0.1180 c5         1 T73       0.178300
      5 C7          -1.8500     0.7730     1.3780 c5         1 T73      -0.094400
      6 C2          -3.1300    -0.1330     1.3880 c5         1 T73      -0.064700
      7 C5          -2.4040    -0.3310    -0.7570 c5         1 T73      -0.048000
      8 C15         -2.4090    -0.3250    -2.3040 c3         1 T73      -0.071100
      9 C4          -2.0960    -1.7470    -0.1250 c5         1 T73      -0.068400
     10 C3          -2.5830    -1.5990     1.3510 c5         1 T73      -0.076400
     11 C1          -3.7480     0.0660    -0.0380 c5         1 T73      -0.049000
     12 C16         -4.9780    -0.8540    -0.3470 c3         1 T73      -0.079100
     13 C           -4.2640     1.5180    -0.3190 c3         1 T73      -0.079100
     14 C9           2.3390     0.4640     0.1020 ca         1 T73      -0.185600
     15 C14          3.4630     1.2510     0.4410 ca         1 T73      -0.014000
     16 C13          4.7580     0.7080     0.3830 ca         1 T73      -0.198000
     17 C12          4.9440    -0.6240    -0.0130 ca         1 T73       0.170100
     18 O2           6.1960    -1.1570    -0.0710 oh         1 T73      -0.527100
     19 C11          3.8390    -1.4150    -0.3500 ca         1 T73      -0.198000
     20 C10          2.5400    -0.8790    -0.2940 ca         1 T73      -0.014000
     21 H1          -1.4520     1.6780    -0.6220 h1         1 T73       0.062700
     22 H2          -1.0820     0.4300     2.0820 hc         1 T73       0.059200
     23 H3          -2.0880     1.8030     1.6640 hc         1 T73       0.059200
     24 H4          -3.8110     0.0650     2.2250 hc         1 T73       0.067700
     25 H5          -1.4280    -0.6150    -2.6990 hc         1 T73       0.038367
     26 H6          -3.1490    -1.0270    -2.7040 hc         1 T73       0.038367
     27 H7          -2.6440     0.6710    -2.6980 hc         1 T73       0.038367
     28 H8          -2.6460    -2.5430    -0.6400 hc         1 T73       0.047700
     29 H9          -1.0430    -2.0410    -0.1890 hc         1 T73       0.047700
     30 H10         -1.7770    -1.7720     2.0740 hc         1 T73       0.044200
     31 H11         -3.3650    -2.3290     1.5880 hc         1 T73       0.044200
     32 H12         -5.8250    -0.6010     0.3020 hc         1 T73       0.034867
     33 H13         -5.3130    -0.7280    -1.3830 hc         1 T73       0.034867
     34 H14         -4.7880    -1.9220    -0.2070 hc         1 T73       0.034867
     35 H15         -3.5270     2.3040    -0.1300 hc         1 T73       0.034867
     36 H16         -4.5820     1.6280    -1.3630 hc         1 T73       0.034867
     37 H17         -5.1320     1.7510     0.3100 hc         1 T73       0.034867
     38 H18          3.3360     2.2880     0.7500 ha         1 T73       0.133500
     39 H19          5.6100     1.3290     0.6470 ha         1 T73       0.125500
     40 H20          6.8380    -0.4660     0.1970 ho         1 T73       0.470000
     41 H21          3.9850    -2.4470    -0.6560 ha         1 T73       0.125500
     42 H22          1.6980    -1.5150    -0.5610 ha         1 T73       0.133500
@<TRIPOS>BOND
     1     1     2 2   
     2     2     3 1   
     3     2    14 1   
     4     3     4 1   
     5     4     5 1   
     6     4     7 1   
     7     4    21 1   
     8     5     6 1   
     9     5    22 1   
    10     5    23 1   
    11     6    10 1   
    12     6    11 1   
    13     6    24 1   
    14     7     8 1   
    15     7     9 1   
    16     7    11 1   
    17     8    25 1   
    18     8    26 1   
    19     8    27 1   
    20     9    10 1   
    21     9    28 1   
    22     9    29 1   
    23    10    30 1   
    24    10    31 1   
    25    11    12 1   
    26    11    13 1   
    27    12    32 1   
    28    12    33 1   
    29    12    34 1   
    30    13    35 1   
    31    13    36 1   
    32    13    37 1   
    33    14    15 ar  
    34    14    20 ar  
    35    15    16 ar  
    36    15    38 1   
    37    16    17 ar  
    38    16    39 1   
    39    17    18 1   
    40    17    19 ar  
    41    18    40 1   
    42    19    20 ar  
    43    19    41 1   
    44    20    42 1   
@<TRIPOS>SUBSTRUCTURE
     1 T73         1 TEMP              0 ****  ****    0 ROOT
