@<TRIPOS>MOLECULE
T74
   76    80     1     0     0
SMALL
abcg2


@<TRIPOS>ATOM
      1 C38         23.8630     5.0940    24.8740 c3         1 T74       0.144900
      2 O37         22.7820     4.8430    23.9890 os         1 T74      -0.476000
      3 C25         21.7840     5.8810    23.8540 c3         1 T74       0.185000
      4 C26         20.7410     5.2740    22.9190 c3         1 T74      -0.098600
      5 C27         21.1440     6.2060    25.2040 c3         1 T74      -0.098600
      6 C24         22.3990     7.1570    23.2550 c3         1 T74      -0.123400
      7 C23         23.1880     6.9310    21.9670 c3         1 T74       0.108600
      8 N5          23.7910     8.1550    21.4850 na         1 T74      -0.043100
      9 C9          25.0270     8.6220    21.7200 ca         1 T74       0.205500
     10 C8          25.0940     9.9280    21.1860 ca         1 T74      -0.415900
     11 C7          23.7870    10.1590    20.6420 cc         1 T74       0.627800
     12 N28         23.3600    11.3140    20.0310 nu         1 T74      -0.891200
     13 C29         22.0610    11.4530    19.4740 ca         1 T74       0.272000
     14 C34         20.9460    11.5370    20.3220 ca         1 T74      -0.075800
     15 C36         21.0950    11.4930    21.8160 c3         1 T74      -0.047800
     16 C33         19.6860    11.6850    19.7430 ca         1 T74      -0.105000
     17 C32         19.5330    11.7720    18.3650 ca         1 T74      -0.109000
     18 C31         20.6510    11.7110    17.5420 ca         1 T74      -0.105000
     19 C30         21.9260    11.5440    18.0790 ca         1 T74      -0.075800
     20 C35         23.1300    11.4540    17.1830 c3         1 T74      -0.047800
     21 N6          23.0170     9.1030    20.8240 nd         1 T74      -0.580100
     22 C4          26.3110    10.5830    21.3410 ca         1 T74       0.231900
     23 N1          27.3300     9.9960    21.9490 nb         1 T74      -0.276000
     24 N3          26.0310     7.9990    22.3440 nb         1 T74      -0.266000
     25 C2          27.1480     8.7240    22.4220 ca         1 T74       0.415900
     26 N10         28.2610     8.2150    23.0200 nu         1 T74      -0.921900
     27 C11         28.5210     6.9620    23.5940 ca         1 T74       0.281000
     28 C16         29.8470     6.6800    23.9320 ca         1 T74      -0.119000
     29 C15         30.2060     5.4700    24.5080 ca         1 T74      -0.131500
     30 C14         29.2460     4.4870    24.7900 ca         1 T74       0.262000
     31 C13         27.9160     4.7860    24.4570 ca         1 T74      -0.131500
     32 C12         27.5540     5.9890    23.8710 ca         1 T74      -0.119000
     33 N17         29.5700     3.2670    25.4120 nh         1 T74      -0.779400
     34 C22         30.9570     3.0740    25.8250 c6         1 T74       0.155800
     35 C21         31.0780     1.8670    26.7530 c6         1 T74       0.142800
     36 N20         30.5210     0.6340    26.1970 n7         1 T74      -0.841400
     37 C19         29.1490     0.8600    25.7390 c6         1 T74       0.142800
     38 C18         29.0120     2.0540    24.8010 c6         1 T74       0.155800
     39 H38         24.5500     4.2550    24.7670 h1         1 T74       0.030700
     40 H38A        24.3980     6.0140    24.6250 h1         1 T74       0.030700
     41 H38B        23.5360     5.1510    25.9160 h1         1 T74       0.030700
     42 H26         20.2790     4.4060    23.3910 hc         1 T74       0.044367
     43 H26A        19.9620     6.0050    22.6970 hc         1 T74       0.044367
     44 H26B        21.1930     4.9510    21.9810 hc         1 T74       0.044367
     45 H27         21.8500     6.6900    25.8800 hc         1 T74       0.044367
     46 H27A        20.3020     6.8840    25.0570 hc         1 T74       0.044367
     47 H27B        20.7750     5.2930    25.6750 hc         1 T74       0.044367
     48 H24         21.5930     7.8680    23.0650 hc         1 T74       0.056200
     49 H24A        23.0600     7.6260    23.9880 hc         1 T74       0.056200
     50 H23         23.9980     6.2220    22.1310 h1         1 T74       0.075200
     51 H23A        22.5550     6.5410    21.1720 h1         1 T74       0.075200
     52 HN28        24.0930    11.8280    19.5660 hn         1 T74       0.484000
     53 H36         21.3100    10.4790    22.1610 hc         1 T74       0.045200
     54 H36A        21.9260    12.1210    22.1440 hc         1 T74       0.045200
     55 H36B        20.1820    11.8360    22.3020 hc         1 T74       0.045200
     56 H33         18.8180    11.7500    20.3890 ha         1 T74       0.112500
     57 H32         18.5470    11.8940    17.9350 ha         1 T74       0.114000
     58 H31         20.5380    11.7800    16.4670 ha         1 T74       0.112500
     59 H35         22.8280    11.4410    16.1360 hc         1 T74       0.045200
     60 H35A        23.8050    12.3050    17.3240 hc         1 T74       0.045200
     61 H35B        23.7100    10.5510    17.3870 hc         1 T74       0.045200
     62 H4          26.4720    11.5930    20.9770 h4         1 T74       0.023100
     63 HN10        29.0470     8.8460    22.9820 hn         1 T74       0.511000
     64 H16         30.6160     7.4150    23.7250 ha         1 T74       0.128500
     65 H15         31.2490     5.3000    24.7250 ha         1 T74       0.114500
     66 H13         27.1320     4.0750    24.6790 ha         1 T74       0.114500
     67 H12         26.5220     6.1780    23.6330 ha         1 T74       0.128500
     68 H22         31.6140     2.9310    24.9510 h1         1 T74       0.040450
     69 H22A        31.2980     3.9630    26.3560 h1         1 T74       0.040450
     70 H21         32.1300     1.7070    26.9950 h1         1 T74       0.061950
     71 H21A        30.5490     2.0860    27.6860 h1         1 T74       0.061950
     72 HN20        31.0880     0.3430    25.4050 hn         1 T74       0.400000
     73 H19         28.7870    -0.0380    25.2350 h1         1 T74       0.061950
     74 H19A        28.5210     1.0260    26.6200 h1         1 T74       0.061950
     75 H18         27.9620     2.2090    24.5660 h1         1 T74       0.040450
     76 H18A        29.5380     1.8370    23.8560 h1         1 T74       0.040450
@<TRIPOS>BOND
     1     1     2 1   
     2     1    39 1   
     3     1    40 1   
     4     1    41 1   
     5     2     3 1   
     6     3     4 1   
     7     3     5 1   
     8     3     6 1   
     9     4    42 1   
    10     4    43 1   
    11     4    44 1   
    12     5    45 1   
    13     5    46 1   
    14     5    47 1   
    15     6     7 1   
    16     6    48 1   
    17     6    49 1   
    18     7     8 1   
    19     7    50 1   
    20     7    51 1   
    21     8     9 1   
    22     8    21 1   
    23     9    10 ar  
    24     9    24 ar  
    25    10    11 1   
    26    10    22 ar  
    27    11    12 1   
    28    11    21 2   
    29    12    13 1   
    30    12    52 1   
    31    13    14 ar  
    32    13    19 ar  
    33    14    15 1   
    34    14    16 ar  
    35    15    53 1   
    36    15    54 1   
    37    15    55 1   
    38    16    17 ar  
    39    16    56 1   
    40    17    18 ar  
    41    17    57 1   
    42    18    19 ar  
    43    18    58 1   
    44    19    20 1   
    45    20    59 1   
    46    20    60 1   
    47    20    61 1   
    48    22    23 ar  
    49    22    62 1   
    50    23    25 ar  
    51    24    25 ar  
    52    25    26 1   
    53    26    27 1   
    54    26    63 1   
    55    27    28 ar  
    56    27    32 ar  
    57    28    29 ar  
    58    28    64 1   
    59    29    30 ar  
    60    29    65 1   
    61    30    31 ar  
    62    30    33 1   
    63    31    32 ar  
    64    31    66 1   
    65    32    67 1   
    66    33    34 1   
    67    33    38 1   
    68    34    35 1   
    69    34    68 1   
    70    34    69 1   
    71    35    36 1   
    72    35    70 1   
    73    35    71 1   
    74    36    37 1   
    75    36    72 1   
    76    37    38 1   
    77    37    73 1   
    78    37    74 1   
    79    38    75 1   
    80    38    76 1   
@<TRIPOS>SUBSTRUCTURE
     1 T74         1 TEMP              0 ****  ****    0 ROOT
