@<TRIPOS>MOLECULE
T74
   76    80     1     0     0
SMALL
No Charge or Current Charge


@<TRIPOS>ATOM
      1 C38         24.7870     4.2560    23.3850 c3         1 T74       0.144900
      2 O37         23.3710     4.2100    23.0880 os         1 T74      -0.476000
      3 C25         22.4910     5.1760    23.7200 c3         1 T74       0.185000
      4 C26         21.0720     4.8130    23.2200 c3         1 T74      -0.098600
      5 C27         22.5660     4.9990    25.2590 c3         1 T74      -0.098600
      6 C24         22.8960     6.6190    23.2940 c3         1 T74      -0.123400
      7 C23         23.0160     6.8440    21.7660 c3         1 T74       0.108600
      8 N5          23.5020     8.1920    21.4160 na         1 T74      -0.043100
      9 C9          24.8140     8.5950    21.5990 ca         1 T74       0.205500
     10 C8          24.8570     9.8660    21.1170 ca         1 T74      -0.415900
     11 C7          23.5410    10.1690    20.6710 cc         1 T74       0.627800
     12 N28         23.1900    11.3380    20.0830 nu         1 T74      -0.891200
     13 C29         21.9810    11.7540    19.5130 ca         1 T74       0.272000
     14 C34         20.8230    11.9540    20.3130 ca         1 T74      -0.075800
     15 C36         20.8360    11.7520    21.8290 c3         1 T74      -0.047800
     16 C33         19.6240    12.3740    19.7040 ca         1 T74      -0.105000
     17 C32         19.5690    12.6070    18.3230 ca         1 T74      -0.109000
     18 C31         20.7130    12.4280    17.5340 ca         1 T74      -0.105000
     19 C30         21.9230    12.0050    18.1180 ca         1 T74      -0.075800
     20 C35         23.1480    11.8120    17.2240 c3         1 T74      -0.047800
     21 N6          22.6890     9.1610    20.8260 nd         1 T74      -0.580100
     22 C4          26.0480    10.5930    21.1380 ca         1 T74       0.231900
     23 N1          27.1580    10.0170    21.6500 nb         1 T74      -0.276000
     24 N3          25.9030     8.0020    22.1140 nb         1 T74      -0.266000
     25 C2          27.0230     8.7580    22.1230 ca         1 T74       0.415900
     26 N10         28.1820     8.1910    22.6320 nu         1 T74      -0.921900
     27 C11         28.4400     7.0330    23.3730 ca         1 T74       0.281000
     28 C16         29.6730     6.3770    23.2200 ca         1 T74      -0.119000
     29 C15         29.9570     5.2070    23.9500 ca         1 T74      -0.131500
     30 C14         29.0150     4.6770    24.8560 ca         1 T74       0.262000
     31 C13         27.7920     5.3540    25.0270 ca         1 T74      -0.131500
     32 C12         27.5070     6.5210    24.2950 ca         1 T74      -0.119000
     33 N17         29.2780     3.4970    25.5940 nh         1 T74      -0.779400
     34 C22         30.6810     3.0730    25.9110 c6         1 T74       0.155800
     35 C21         30.7570     2.1170    27.1480 c6         1 T74       0.142800
     36 N20         29.8310     0.9530    27.0350 n7         1 T74      -0.841400
     37 C19         28.4320     1.4180    26.8060 c6         1 T74       0.142800
     38 C18         28.3030     2.3580    25.5610 c6         1 T74       0.155800
     39 H38         25.3110     3.4690    22.8290 h1         1 T74       0.030700
     40 H38A        25.2290     5.2150    23.0900 h1         1 T74       0.030700
     41 H38B        24.9810     4.0900    24.4510 h1         1 T74       0.030700
     42 H26         20.7790     3.8190    23.5770 hc         1 T74       0.044367
     43 H26A        20.3340     5.5360    23.5870 hc         1 T74       0.044367
     44 H26B        21.0250     4.8010    22.1250 hc         1 T74       0.044367
     45 H27         23.5230     5.3490    25.6620 hc         1 T74       0.044367
     46 H27A        21.7740     5.5780    25.7500 hc         1 T74       0.044367
     47 H27B        22.4370     3.9460    25.5380 hc         1 T74       0.044367
     48 H24         22.1560     7.3250    23.6900 hc         1 T74       0.056200
     49 H24A        23.8440     6.8870    23.7740 hc         1 T74       0.056200
     50 H23         23.7110     6.1120    21.3360 h1         1 T74       0.075200
     51 H23A        22.0400     6.6920    21.2910 h1         1 T74       0.075200
     52 HN28        24.0090    11.8040    19.7110 hn         1 T74       0.484000
     53 H36         20.6810    10.6980    22.0870 hc         1 T74       0.045200
     54 H36A        21.7830    12.0750    22.2760 hc         1 T74       0.045200
     55 H36B        20.0410    12.3290    22.3160 hc         1 T74       0.045200
     56 H33         18.7300    12.5260    20.3060 ha         1 T74       0.112500
     57 H32         18.6380    12.9330    17.8640 ha         1 T74       0.114000
     58 H31         20.6570    12.6180    16.4640 ha         1 T74       0.112500
     59 H35         22.9080    11.9650    16.1650 hc         1 T74       0.045200
     60 H35A        23.9430    12.5210    17.4840 hc         1 T74       0.045200
     61 H35B        23.5530    10.7970    17.3210 hc         1 T74       0.045200
     62 H4          26.1280    11.6110    20.7600 h4         1 T74       0.023100
     63 HN10        29.0180     8.6940    22.3370 hn         1 T74       0.511000
     64 H16         30.4090     6.7630    22.5200 ha         1 T74       0.128500
     65 H15         30.9100     4.7090    23.7940 ha         1 T74       0.114500
     66 H13         27.0630     4.9840    25.7420 ha         1 T74       0.114500
     67 H12         26.5650     7.0330    24.4630 ha         1 T74       0.128500
     68 H22         31.1180     2.5620    25.0410 h1         1 T74       0.040450
     69 H22A        31.3050     3.9550    26.1200 h1         1 T74       0.040450
     70 H21         31.7910     1.7610    27.2670 h1         1 T74       0.061950
     71 H21A        30.5070     2.6930    28.0520 h1         1 T74       0.061950
     72 HN20        30.1170     0.4020    26.2170 hn         1 T74       0.400000
     73 H19         27.7670     0.5510    26.6740 h1         1 T74       0.061950
     74 H19A        28.0800     1.9640    27.6950 h1         1 T74       0.061950
     75 H18         27.2690     2.7280    25.5160 h1         1 T74       0.040450
     76 H18A        28.4700     1.7630    24.6510 h1         1 T74       0.040450
@<TRIPOS>BOND
     1     1     2 1   
     2     1    39 1   
     3     1    40 1   
     4     1    41 1   
     5     2     3 1   
     6     3     4 1   
     7     3     5 1   
     8     3     6 1   
     9     4    42 1   
    10     4    43 1   
    11     4    44 1   
    12     5    45 1   
    13     5    46 1   
    14     5    47 1   
    15     6     7 1   
    16     6    48 1   
    17     6    49 1   
    18     7     8 1   
    19     7    50 1   
    20     7    51 1   
    21     8     9 1   
    22     8    21 1   
    23     9    10 ar  
    24     9    24 ar  
    25    10    11 1   
    26    10    22 ar  
    27    11    12 1   
    28    11    21 2   
    29    12    13 1   
    30    12    52 1   
    31    13    14 ar  
    32    13    19 ar  
    33    14    15 1   
    34    14    16 ar  
    35    15    53 1   
    36    15    54 1   
    37    15    55 1   
    38    16    17 ar  
    39    16    56 1   
    40    17    18 ar  
    41    17    57 1   
    42    18    19 ar  
    43    18    58 1   
    44    19    20 1   
    45    20    59 1   
    46    20    60 1   
    47    20    61 1   
    48    22    23 ar  
    49    22    62 1   
    50    23    25 ar  
    51    24    25 ar  
    52    25    26 1   
    53    26    27 1   
    54    26    63 1   
    55    27    28 ar  
    56    27    32 ar  
    57    28    29 ar  
    58    28    64 1   
    59    29    30 ar  
    60    29    65 1   
    61    30    31 ar  
    62    30    33 1   
    63    31    32 ar  
    64    31    66 1   
    65    32    67 1   
    66    33    34 1   
    67    33    38 1   
    68    34    35 1   
    69    34    68 1   
    70    34    69 1   
    71    35    36 1   
    72    35    70 1   
    73    35    71 1   
    74    36    37 1   
    75    36    72 1   
    76    37    38 1   
    77    37    73 1   
    78    37    74 1   
    79    38    75 1   
    80    38    76 1   
@<TRIPOS>SUBSTRUCTURE
     1 T74         1 TEMP              0 ****  ****    0 ROOT
