@<TRIPOS>MOLECULE
T75
   50    53     1     0     0
SMALL
abcg2


@<TRIPOS>ATOM
      1 O24          4.2940    -1.7850     0.7070 o          1 T75      -0.531100
      2 C22          4.2290    -0.6280     0.3480 c          1 T75       0.623700
      3 C23          5.4420     0.1180    -0.1050 ca         1 T75      -0.158600
      4 C29          6.5040    -0.6180    -0.6280 ca         1 T75      -0.071500
      5 C28          7.6580     0.0240    -1.0480 ca         1 T75      -0.119000
      6 C27          7.7710     1.4040    -0.9300 ca         1 T75      -0.087000
      7 C26          6.7250     2.1400    -0.3910 ca         1 T75      -0.119000
      8 C25          5.5620     1.5010     0.0170 ca         1 T75      -0.071500
      9 N19          3.0710     0.0960     0.2960 ns         1 T75      -0.330900
     10 C8           1.8010    -0.2950     0.7110 ca         1 T75       0.486900
     11 C7           0.7030     0.3620     0.1480 ca         1 T75      -0.211000
     12 N9           1.6850    -1.2360     1.6290 nb         1 T75      -0.672000
     13 C10          0.4580    -1.5720     2.0170 ca         1 T75       0.370900
     14 C11         -0.6940    -0.9880     1.5330 ca         1 T75      -0.175000
     15 C6          -0.5720     0.0130     0.5660 ca         1 T75       0.059000
     16 C5          -1.7520     0.6900     0.0290 cc         1 T75      -0.192000
     17 S4          -1.8040     2.4110    -0.0700 ss         1 T75      -0.031400
     18 C3          -3.4290     2.3250    -0.6450 cc         1 T75       0.445700
     19 C20         -4.2260     3.5560    -0.9170 c3         1 T75      -0.115700
     20 C21         -4.7380     4.2040     0.3690 c3         1 T75      -0.089100
     21 N2          -3.8780     1.1170    -0.7560 nd         1 T75      -0.640000
     22 C1          -2.9510     0.1780    -0.3950 cd         1 T75       0.369500
     23 C12         -3.3030    -1.2440    -0.5190 ca         1 T75      -0.127500
     24 C17         -2.3850    -2.1800    -0.9900 ca         1 T75      -0.091000
     25 C16         -2.7530    -3.5110    -1.1080 ca         1 T75      -0.113000
     26 C15         -4.0350    -3.9180    -0.7630 ca         1 T75      -0.100000
     27 C14         -4.9720    -2.9970    -0.3000 ca         1 T75      -0.083300
     28 C18         -6.3520    -3.4350     0.0990 c3         1 T75      -0.045800
     29 C13         -4.5930    -1.6630    -0.1910 ca         1 T75      -0.076000
     30 H19          3.1020     0.9620    -0.2210 hn         1 T75       0.156000
     31 H29          6.4220    -1.6920    -0.7180 ha         1 T75       0.124500
     32 H25          4.7680     2.0930     0.4560 ha         1 T75       0.124500
     33 H28          8.4730    -0.5520    -1.4650 ha         1 T75       0.118000
     34 H27          8.6740     1.9030    -1.2540 ha         1 T75       0.116000
     35 H26          6.8130     3.2130    -0.2830 ha         1 T75       0.118000
     36 H7           0.8510     1.1150    -0.6170 ha         1 T75       0.125000
     37 H10          0.3940    -2.3450     2.7730 h4         1 T75       0.026100
     38 H11         -1.6610    -1.2920     1.9090 ha         1 T75       0.137000
     39 H201        -3.6250     4.2730    -1.4800 hc         1 T75       0.065200
     40 H202        -5.0650     3.2700    -1.5530 hc         1 T75       0.065200
     41 H211        -5.3520     5.0730     0.1340 hc         1 T75       0.041700
     42 H212        -5.3450     3.5050     0.9450 hc         1 T75       0.041700
     43 H213        -3.9150     4.5380     1.0020 hc         1 T75       0.041700
     44 H17         -1.3910    -1.8710    -1.2870 ha         1 T75       0.119000
     45 H13         -5.3120    -0.9320     0.1590 ha         1 T75       0.125000
     46 H16         -2.0410    -4.2340    -1.4840 ha         1 T75       0.116000
     47 H15         -4.3120    -4.9610    -0.8630 ha         1 T75       0.112000
     48 H181        -6.3840    -3.7060     1.1560 hc         1 T75       0.042367
     49 H182        -7.0840    -2.6430    -0.0540 hc         1 T75       0.042367
     50 H183        -6.6740    -4.3070    -0.4690 hc         1 T75       0.042367
@<TRIPOS>BOND
     1     1     2 2   
     2     2     3 1   
     3     2     9 1   
     4     3     4 ar  
     5     3     8 ar  
     6     4     5 ar  
     7     4    31 1   
     8     5     6 ar  
     9     5    33 1   
    10     6     7 ar  
    11     6    34 1   
    12     7     8 ar  
    13     7    35 1   
    14     8    32 1   
    15     9    10 1   
    16     9    30 1   
    17    10    11 ar  
    18    10    12 ar  
    19    11    15 ar  
    20    11    36 1   
    21    12    13 ar  
    22    13    14 ar  
    23    13    37 1   
    24    14    15 ar  
    25    14    38 1   
    26    15    16 1   
    27    16    17 1   
    28    16    22 2   
    29    17    18 1   
    30    18    19 1   
    31    18    21 2   
    32    19    20 1   
    33    19    39 1   
    34    19    40 1   
    35    20    41 1   
    36    20    42 1   
    37    20    43 1   
    38    21    22 1   
    39    22    23 1   
    40    23    24 ar  
    41    23    29 ar  
    42    24    25 ar  
    43    24    44 1   
    44    25    26 ar  
    45    25    46 1   
    46    26    27 ar  
    47    26    47 1   
    48    27    28 1   
    49    27    29 ar  
    50    28    48 1   
    51    28    49 1   
    52    28    50 1   
    53    29    45 1   
@<TRIPOS>SUBSTRUCTURE
     1 T75         1 TEMP              0 ****  ****    0 ROOT
