@<TRIPOS>MOLECULE
T75
   50    53     1     0     0
SMALL
No Charge or Current Charge


@<TRIPOS>ATOM
      1 O24          4.0980    -1.9240     0.4160 o          1 T75      -0.531100
      2 C22          4.1570    -0.7220     0.1850 c          1 T75       0.623700
      3 C23          5.4480    -0.0670    -0.2750 ca         1 T75      -0.158600
      4 C29          6.6110    -0.8570    -0.4360 ca         1 T75      -0.071500
      5 C28          7.8200    -0.2800    -0.8600 ca         1 T75      -0.119000
      6 C27          7.8890     1.0950    -1.1300 ca         1 T75      -0.087000
      7 C26          6.7460     1.8930    -0.9750 ca         1 T75      -0.119000
      8 C25          5.5330     1.3220    -0.5510 ca         1 T75      -0.071500
      9 N19          3.0650     0.1130     0.2980 ns         1 T75      -0.330900
     10 C8           1.7640    -0.1560     0.7370 ca         1 T75       0.486900
     11 C7           0.6670     0.5030     0.1660 ca         1 T75      -0.211000
     12 N9           1.6620    -0.9780     1.8000 nb         1 T75      -0.672000
     13 C10          0.4270    -1.2050     2.2980 ca         1 T75       0.370900
     14 C11         -0.7300    -0.6120     1.7690 ca         1 T75      -0.175000
     15 C6          -0.6180     0.2570     0.6720 ca         1 T75       0.059000
     16 C5          -1.7800     0.9300     0.1070 cc         1 T75      -0.192000
     17 S4          -1.9140     2.6590     0.0240 ss         1 T75      -0.031400
     18 C3          -3.5830     2.4190    -0.4150 cc         1 T75       0.445700
     19 C20         -4.4820     3.5990    -0.6680 c3         1 T75      -0.115700
     20 C21         -5.1340     4.1550     0.6160 c3         1 T75      -0.089100
     21 N2          -3.9970     1.1650    -0.5250 nd         1 T75      -0.640000
     22 C1          -2.9660     0.2830    -0.2150 cd         1 T75       0.369500
     23 C12         -3.2100    -1.1790    -0.3670 ca         1 T75      -0.127500
     24 C17         -2.1630    -2.1010    -0.6120 ca         1 T75      -0.091000
     25 C16         -2.4320    -3.4690    -0.7860 ca         1 T75      -0.113000
     26 C15         -3.7510    -3.9420    -0.7440 ca         1 T75      -0.100000
     27 C14         -4.8120    -3.0430    -0.5470 ca         1 T75      -0.083300
     28 C18         -6.2480    -3.5450    -0.5180 c3         1 T75      -0.045800
     29 C13         -4.5380    -1.6730    -0.3720 ca         1 T75      -0.076000
     30 H19          3.2150     1.0690     0.0100 hn         1 T75       0.156000
     31 H29          6.5830    -1.9260    -0.2320 ha         1 T75       0.124500
     32 H25          4.6710     1.9750    -0.4410 ha         1 T75       0.124500
     33 H28          8.7050    -0.9010    -0.9790 ha         1 T75       0.118000
     34 H27          8.8260     1.5400    -1.4590 ha         1 T75       0.116000
     35 H26          6.7980     2.9600    -1.1840 ha         1 T75       0.118000
     36 H7           0.8130     1.1860    -0.6650 ha         1 T75       0.125000
     37 H10          0.3640    -1.8780     3.1530 h4         1 T75       0.026100
     38 H11         -1.6960    -0.8240     2.2180 ha         1 T75       0.137000
     39 H201        -3.9070     4.3970    -1.1520 hc         1 T75       0.065200
     40 H202        -5.2700     3.3150    -1.3750 hc         1 T75       0.065200
     41 H211        -5.7790     5.0090     0.3790 hc         1 T75       0.041700
     42 H212        -5.7460     3.3860     1.1030 hc         1 T75       0.041700
     43 H213        -4.3680     4.4890     1.3270 hc         1 T75       0.041700
     44 H17         -1.1340    -1.7720    -0.7040 ha         1 T75       0.119000
     45 H13         -5.3720    -0.9930    -0.2150 ha         1 T75       0.125000
     46 H16         -1.6140    -4.1630    -0.9660 ha         1 T75       0.116000
     47 H15         -3.9480    -5.0030    -0.8800 ha         1 T75       0.112000
     48 H181        -6.5740    -3.7340     0.5110 hc         1 T75       0.042367
     49 H182        -6.9350    -2.8130    -0.9590 hc         1 T75       0.042367
     50 H183        -6.3580    -4.4790    -1.0820 hc         1 T75       0.042367
@<TRIPOS>BOND
     1     1     2 2   
     2     2     3 1   
     3     2     9 1   
     4     3     4 ar  
     5     3     8 ar  
     6     4     5 ar  
     7     4    31 1   
     8     5     6 ar  
     9     5    33 1   
    10     6     7 ar  
    11     6    34 1   
    12     7     8 ar  
    13     7    35 1   
    14     8    32 1   
    15     9    10 1   
    16     9    30 1   
    17    10    11 ar  
    18    10    12 ar  
    19    11    15 ar  
    20    11    36 1   
    21    12    13 ar  
    22    13    14 ar  
    23    13    37 1   
    24    14    15 ar  
    25    14    38 1   
    26    15    16 1   
    27    16    17 1   
    28    16    22 2   
    29    17    18 1   
    30    18    19 1   
    31    18    21 2   
    32    19    20 1   
    33    19    39 1   
    34    19    40 1   
    35    20    41 1   
    36    20    42 1   
    37    20    43 1   
    38    21    22 1   
    39    22    23 1   
    40    23    24 ar  
    41    23    29 ar  
    42    24    25 ar  
    43    24    44 1   
    44    25    26 ar  
    45    25    46 1   
    46    26    27 ar  
    47    26    47 1   
    48    27    28 1   
    49    27    29 ar  
    50    28    48 1   
    51    28    49 1   
    52    28    50 1   
    53    29    45 1   
@<TRIPOS>SUBSTRUCTURE
     1 T75         1 TEMP              0 ****  ****    0 ROOT
