@<TRIPOS>MOLECULE
T76
   68    71     1     0     0
SMALL
abcg2


@<TRIPOS>ATOM
      1 C1          -3.6470    -0.5580    -0.0740 ca         1 T76      -0.152300
      2 C2          -3.0100     0.4090    -0.8660 ca         1 T76       0.176100
      3 C3          -3.5260     0.7260    -2.1180 ca         1 T76      -0.195000
      4 C4          -4.6910     0.1170    -2.5720 ca         1 T76      -0.054000
      5 C5          -5.3310    -0.8110    -1.7760 ca         1 T76       0.076000
      6 C6          -4.8080    -1.1550    -0.5370 ca         1 T76      -0.060000
      7 C7          -3.0390    -1.0040     1.2280 c3         1 T76       0.158300
      8 N8          -1.8510    -1.7910     0.9730 ns         1 T76      -0.494900
      9 C9          -0.6230    -1.4930     1.4140 c          1 T76       0.605100
     10 C10          0.4570    -2.4590     0.9190 c5         1 T76       0.022700
     11 O11         -0.3700    -0.5750     2.1820 o          1 T76      -0.612100
     12 O12         -1.9130     0.9760    -0.3320 os         1 T76      -0.336100
     13 C18          0.6240    -3.6560     1.8630 c5         1 T76      -0.083400
     14 C19          1.6390    -3.1590     2.8840 c5         1 T76      -0.094400
     15 C20          2.5920    -2.3070     2.0520 c5         1 T76       0.104000
     16 N21          1.7540    -1.8190     0.9560 n          1 T76      -0.386800
     17 C29          1.9690    -0.7500     0.1710 c          1 T76       0.590100
     18 C30          3.3020    -0.0160     0.3020 c3         1 T76       0.038700
     19 N31          3.0170     1.3820     0.5240 ns         1 T76      -0.483900
     20 C32          2.7470     1.8630     1.7550 c          1 T76       0.600100
     21 O33          2.9430     1.2260     2.7800 o          1 T76      -0.608100
     22 C34          2.1360     3.2410     1.7840 c3         1 T76      -0.184400
     23 C35          0.6340     3.1450     2.0660 c3         1 T76       0.111000
     24 N38         -0.1110     2.3650     1.1000 ns         1 T76      -0.486900
     25 C41         -0.3560     2.8190    -0.1300 c          1 T76       0.602100
     26 O42          0.0800     3.8790    -0.5640 o          1 T76      -0.630100
     27 C43         -1.2500     1.9970    -1.0370 c3         1 T76       0.076600
     28 O44          1.1230    -0.3600    -0.6240 o          1 T76      -0.624100
     29 C45          4.2370    -0.2510    -0.8960 c6         1 T76      -0.055700
     30 C47          3.7560     0.3320    -2.2270 c6         1 T76      -0.073900
     31 C48          4.7550     0.0510    -3.3470 c6         1 T76      -0.073400
     32 C49          6.1470     0.5700    -3.0070 c6         1 T76      -0.075400
     33 C50          6.6330    -0.0080    -1.6830 c6         1 T76      -0.073400
     34 C51          5.6390     0.2650    -0.5600 c6         1 T76      -0.073900
     35 CL68        -6.7900    -1.5700    -2.3280 cl         1 T76      -0.201000
     36 H3          -3.0440     1.4410    -2.7680 ha         1 T76       0.128000
     37 H4          -5.0820     0.3760    -3.5470 ha         1 T76       0.131000
     38 H6          -5.3020    -1.8970     0.0760 ha         1 T76       0.129000
     39 H71         -3.7670    -1.5980     1.7850 h1         1 T76       0.067200
     40 H72         -2.7630    -0.1600     1.8560 h1         1 T76       0.067200
     41 H8          -1.9510    -2.5570     0.3260 hn         1 T76       0.312500
     42 H10          0.2100    -2.7880    -0.0930 h1         1 T76       0.078700
     43 H181         1.0290    -4.4990     1.3000 hc         1 T76       0.057200
     44 H182        -0.3190    -3.9790     2.3040 hc         1 T76       0.057200
     45 H191         2.1590    -3.9690     3.3930 hc         1 T76       0.064700
     46 H192         1.1510    -2.5460     3.6420 hc         1 T76       0.064700
     47 H201         3.4210    -2.9040     1.6640 h1         1 T76       0.060200
     48 H202         3.0020    -1.4850     2.6340 h1         1 T76       0.060200
     49 H30          3.8390    -0.3670     1.1810 h1         1 T76       0.086700
     50 H31          2.6890     1.9190    -0.2640 hn         1 T76       0.325500
     51 H341         2.3060     3.7820     0.8530 hc         1 T76       0.076200
     52 H342         2.5970     3.8160     2.5880 hc         1 T76       0.076200
     53 H351         0.2240     4.1550     2.1150 h1         1 T76       0.063200
     54 H352         0.4700     2.6880     3.0410 h1         1 T76       0.063200
     55 H38         -0.4020     1.4320     1.3600 hn         1 T76       0.363500
     56 H431        -0.6460     1.5830    -1.8510 h1         1 T76       0.069700
     57 H432        -1.9590     2.7070    -1.4750 h1         1 T76       0.069700
     58 H45          4.3050    -1.3410    -1.0160 hc         1 T76       0.051700
     59 H471         2.7790    -0.0680    -2.4930 hc         1 T76       0.047450
     60 H472         3.6370     1.4190    -2.1360 hc         1 T76       0.047450
     61 H481         4.8040    -1.0280    -3.5250 hc         1 T76       0.038700
     62 H482         4.3990     0.5010    -4.2770 hc         1 T76       0.038700
     63 H491         6.8500     0.3290    -3.8080 hc         1 T76       0.040200
     64 H492         6.1190     1.6630    -2.9360 hc         1 T76       0.040200
     65 H501         6.7710    -1.0890    -1.7880 hc         1 T76       0.038700
     66 H502         7.6100     0.4040    -1.4210 hc         1 T76       0.038700
     67 H511         5.5900     1.3420    -0.3690 hc         1 T76       0.047450
     68 H512         5.9890    -0.1990     0.3670 hc         1 T76       0.047450
@<TRIPOS>BOND
     1     1     2 ar  
     2     1     6 ar  
     3     1     7 1   
     4     2     3 ar  
     5     2    12 1   
     6     3     4 ar  
     7     3    36 1   
     8     4     5 ar  
     9     4    37 1   
    10     5     6 ar  
    11     5    35 1   
    12     6    38 1   
    13     7     8 1   
    14     7    39 1   
    15     7    40 1   
    16     8     9 1   
    17     8    41 1   
    18     9    10 1   
    19     9    11 2   
    20    10    13 1   
    21    10    16 1   
    22    10    42 1   
    23    12    27 1   
    24    13    14 1   
    25    13    43 1   
    26    13    44 1   
    27    14    15 1   
    28    14    45 1   
    29    14    46 1   
    30    15    16 1   
    31    15    47 1   
    32    15    48 1   
    33    16    17 1   
    34    17    18 1   
    35    17    28 2   
    36    18    19 1   
    37    18    29 1   
    38    18    49 1   
    39    19    20 1   
    40    19    50 1   
    41    20    21 2   
    42    20    22 1   
    43    22    23 1   
    44    22    51 1   
    45    22    52 1   
    46    23    24 1   
    47    23    53 1   
    48    23    54 1   
    49    24    25 1   
    50    24    55 1   
    51    25    26 2   
    52    25    27 1   
    53    27    56 1   
    54    27    57 1   
    55    29    30 1   
    56    29    34 1   
    57    29    58 1   
    58    30    31 1   
    59    30    59 1   
    60    30    60 1   
    61    31    32 1   
    62    31    61 1   
    63    31    62 1   
    64    32    33 1   
    65    32    63 1   
    66    32    64 1   
    67    33    34 1   
    68    33    65 1   
    69    33    66 1   
    70    34    67 1   
    71    34    68 1   
@<TRIPOS>SUBSTRUCTURE
     1 T76         1 TEMP              0 ****  ****    0 ROOT
