@<TRIPOS>MOLECULE
T76
   68    71     1     0     0
SMALL
No Charge or Current Charge


@<TRIPOS>ATOM
      1 C1          -3.7770    -0.6330    -0.0310 ca         1 T76      -0.152300
      2 C2          -3.2140     0.4360    -0.7650 ca         1 T76       0.176100
      3 C3          -3.6860     0.7080    -2.0700 ca         1 T76      -0.195000
      4 C4          -4.7130    -0.0730    -2.6290 ca         1 T76      -0.054000
      5 C5          -5.2720    -1.1290    -1.8950 ca         1 T76       0.076000
      6 C6          -4.8040    -1.4120    -0.6030 ca         1 T76      -0.060000
      7 C7          -3.2480    -0.9990     1.3470 c3         1 T76       0.158300
      8 N8          -2.0380    -1.8060     1.2060 ns         1 T76      -0.494900
      9 C9          -0.7710    -1.3640     1.5150 c          1 T76       0.605100
     10 C10          0.2810    -2.3770     0.9580 c5         1 T76       0.022700
     11 O11         -0.5530    -0.2980     2.0810 o          1 T76      -0.612100
     12 O12         -2.2170     1.1970    -0.1760 os         1 T76      -0.336100
     13 C18          0.4550    -3.5940     1.9140 c5         1 T76      -0.083400
     14 C19          1.4780    -3.0570     2.9440 c5         1 T76      -0.094400
     15 C20          2.5080    -2.3250     2.0440 c5         1 T76       0.104000
     16 N21          1.6600    -1.8210     0.9360 n          1 T76      -0.386800
     17 C29          2.0080    -0.7700     0.0560 c          1 T76       0.590100
     18 C30          3.3880    -0.0530     0.2010 c3         1 T76       0.038700
     19 N31          3.1060     1.3690     0.4860 ns         1 T76      -0.483900
     20 C32          2.8540     1.8480     1.7500 c          1 T76       0.600100
     21 O33          3.1130     1.2060     2.7570 o          1 T76      -0.608100
     22 C34          2.2250     3.2320     1.8110 c3         1 T76      -0.184400
     23 C35          0.7260     3.1300     2.1700 c3         1 T76       0.111000
     24 N38         -0.0700     2.4250     1.1570 ns         1 T76      -0.486900
     25 C41         -0.4720     2.9740    -0.0430 c          1 T76       0.602100
     26 O42         -0.1200     4.1000    -0.3770 o          1 T76      -0.630100
     27 C43         -1.3910     2.1120    -0.9370 c3         1 T76       0.076600
     28 O44          1.1960    -0.4010    -0.7870 o          1 T76      -0.624100
     29 C45          4.3670    -0.2570    -1.0040 c6         1 T76      -0.055700
     30 C47          3.9310     0.4690    -2.3150 c6         1 T76      -0.073900
     31 C48          4.9300     0.2040    -3.4690 c6         1 T76      -0.073400
     32 C49          6.3680     0.6160    -3.0730 c6         1 T76      -0.075400
     33 C50          6.8140    -0.1020    -1.7770 c6         1 T76      -0.073400
     34 C51          5.8170     0.1590    -0.6200 c6         1 T76      -0.073900
     35 Cl68        -6.5530    -2.1070    -2.5990 cl         1 T76      -0.201000
     36 H3          -3.2790     1.5190    -2.6640 ha         1 T76       0.128000
     37 H4          -5.0770     0.1410    -3.6320 ha         1 T76       0.131000
     38 H6          -5.2360    -2.2430    -0.0500 ha         1 T76       0.129000
     39 H71         -3.9980    -1.5810     1.8990 h1         1 T76       0.067200
     40 H72         -3.0420    -0.0900     1.9280 h1         1 T76       0.067200
     41 H8          -2.1110    -2.6950     0.7280 hn         1 T76       0.312500
     42 H10         -0.0400    -2.6960    -0.0430 h1         1 T76       0.078700
     43 H181         0.8640    -4.4570     1.3750 hc         1 T76       0.057200
     44 H182        -0.4840    -3.9190     2.3770 hc         1 T76       0.057200
     45 H191         1.9380    -3.8530     3.5420 hc         1 T76       0.064700
     46 H192         1.0050    -2.3590     3.6440 hc         1 T76       0.064700
     47 H201         3.2730    -3.0130     1.6610 h1         1 T76       0.060200
     48 H202         3.0040    -1.5240     2.6070 h1         1 T76       0.060200
     49 H30          3.9020    -0.4730     1.0690 h1         1 T76       0.086700
     50 H31          2.8500     1.9720    -0.2870 hn         1 T76       0.325500
     51 H341         2.3280     3.7460     0.8500 hc         1 T76       0.076200
     52 H342         2.7230     3.8090     2.5980 hc         1 T76       0.076200
     53 H351         0.3150     4.1400     2.3000 h1         1 T76       0.063200
     54 H352         0.6140     2.6030     3.1270 h1         1 T76       0.063200
     55 H38         -0.4050     1.4830     1.3630 hn         1 T76       0.363500
     56 H431        -0.7530     1.5590    -1.6370 h1         1 T76       0.069700
     57 H432        -2.0090     2.8170    -1.5040 h1         1 T76       0.069700
     58 H45          4.3720    -1.3390    -1.1990 hc         1 T76       0.051700
     59 H471         2.9350     0.1340    -2.6290 hc         1 T76       0.047450
     60 H472         3.8580     1.5520    -2.1460 hc         1 T76       0.047450
     61 H481         4.9110    -0.8610    -3.7380 hc         1 T76       0.038700
     62 H482         4.6190     0.7580    -4.3660 hc         1 T76       0.038700
     63 H491         7.0630     0.3780    -3.8890 hc         1 T76       0.040200
     64 H492         6.4160     1.7050    -2.9290 hc         1 T76       0.040200
     65 H501         6.8930    -1.1820    -1.9600 hc         1 T76       0.038700
     66 H502         7.8170     0.2400    -1.4880 hc         1 T76       0.038700
     67 H511         5.8430     1.2240    -0.3490 hc         1 T76       0.047450
     68 H512         6.1440    -0.3940     0.2710 hc         1 T76       0.047450
@<TRIPOS>BOND
     1     1     2 ar  
     2     1     6 ar  
     3     1     7 1   
     4     2     3 ar  
     5     2    12 1   
     6     3     4 ar  
     7     3    36 1   
     8     4     5 ar  
     9     4    37 1   
    10     5     6 ar  
    11     5    35 1   
    12     6    38 1   
    13     7     8 1   
    14     7    39 1   
    15     7    40 1   
    16     8     9 1   
    17     8    41 1   
    18     9    10 1   
    19     9    11 2   
    20    10    13 1   
    21    10    16 1   
    22    10    42 1   
    23    12    27 1   
    24    13    14 1   
    25    13    43 1   
    26    13    44 1   
    27    14    15 1   
    28    14    45 1   
    29    14    46 1   
    30    15    16 1   
    31    15    47 1   
    32    15    48 1   
    33    16    17 1   
    34    17    18 1   
    35    17    28 2   
    36    18    19 1   
    37    18    29 1   
    38    18    49 1   
    39    19    20 1   
    40    19    50 1   
    41    20    21 2   
    42    20    22 1   
    43    22    23 1   
    44    22    51 1   
    45    22    52 1   
    46    23    24 1   
    47    23    53 1   
    48    23    54 1   
    49    24    25 1   
    50    24    55 1   
    51    25    26 2   
    52    25    27 1   
    53    27    56 1   
    54    27    57 1   
    55    29    30 1   
    56    29    34 1   
    57    29    58 1   
    58    30    31 1   
    59    30    59 1   
    60    30    60 1   
    61    31    32 1   
    62    31    61 1   
    63    31    62 1   
    64    32    33 1   
    65    32    63 1   
    66    32    64 1   
    67    33    34 1   
    68    33    65 1   
    69    33    66 1   
    70    34    67 1   
    71    34    68 1   
@<TRIPOS>SUBSTRUCTURE
     1 T76         1 TEMP              0 ****  ****    0 ROOT
