@<TRIPOS>MOLECULE
T77
   63    67     1     0     0
SMALL
No Charge or Current Charge


@<TRIPOS>ATOM
      1 C34         -9.0900     0.3000     0.7800 c3         1 T77       0.149600
      2 N32         -8.6330    -1.0500     0.3730 n3         1 T77      -0.701600
      3 C33         -9.6980    -2.0650     0.5250 c3         1 T77       0.149600
      4 C31         -8.0050    -1.0890    -0.9830 c3         1 T77       0.166800
      5 C30         -6.7470    -0.2010    -1.1930 c3         1 T77       0.164600
      6 O27         -5.7180    -0.6170    -0.2730 os         1 T77      -0.324100
      7 C24         -4.4810    -0.0080    -0.2300 ca         1 T77       0.155100
      8 C21         -4.1290     1.0630    -1.0800 ca         1 T77      -0.177500
      9 C15         -2.8510     1.6430    -0.9880 ca         1 T77      -0.056500
     10 C20         -3.5490    -0.4800     0.7050 ca         1 T77      -0.177500
     11 C14         -2.2720     0.1000     0.7960 ca         1 T77      -0.056500
     12 C7          -1.9080     1.1580    -0.0610 ca         1 T77      -0.084800
     13 C3          -0.5880     1.7860     0.0280 cc         1 T77       0.003700
     14 N8          -0.3020     3.1550    -0.0140 na         1 T77      -0.310400
     15 C5           1.0550     3.3730     0.1190 ca         1 T77       0.149500
     16 N11          1.7480     4.5240     0.0920 nb         1 T77      -0.235000
     17 C18          3.0920     4.4030     0.1750 ca         1 T77       0.181900
     18 N13          3.7960     3.2510     0.2430 nb         1 T77      -0.311000
     19 C2           1.6790     2.1480     0.2430 ca         1 T77      -0.242800
     20 C1           0.6250     1.1340     0.2360 cd         1 T77      -0.044400
     21 C4           0.8540    -0.3270     0.2260 ca         1 T77      -0.024800
     22 C9           0.1670    -1.1570    -0.6850 ca         1 T77      -0.099500
     23 C16          0.3490    -2.5500    -0.6630 ca         1 T77      -0.114000
     24 C22          1.2080    -3.1320     0.2820 ca         1 T77      -0.119000
     25 C17          1.8850    -2.3180     1.2040 ca         1 T77      -0.114000
     26 C10          1.7080    -0.9240     1.1750 ca         1 T77      -0.099500
     27 C6           3.0860     2.1070     0.2670 ca         1 T77       0.437900
     28 N12          3.8080     0.9290     0.2100 nu         1 T77      -0.917100
     29 C19          5.2610     0.7790    -0.0330 c3         1 T77       0.256800
     30 C23          5.7150    -0.7040    -0.1840 c5         1 T77       0.196300
     31 S25          4.7640    -1.5820    -1.5320 ss         1 T77      -0.412000
     32 C28          4.8780    -3.2750    -0.7310 c5         1 T77       0.054100
     33 C29          5.8830    -3.2180     0.4510 c5         1 T77       0.054100
     34 S26          5.4560    -1.6730     1.3730 ss         1 T77      -0.412000
     35 H1          -9.5310     0.2720     1.7850 h1         1 T77       0.031033
     36 H2          -8.2540     1.0110     0.8070 h1         1 T77       0.031033
     37 H3          -9.8490     0.6830     0.0840 h1         1 T77       0.031033
     38 H5         -10.5360    -1.8600    -0.1550 h1         1 T77       0.031033
     39 H6          -9.3130    -3.0690     0.3020 h1         1 T77       0.031033
     40 H7         -10.0830    -2.0740     1.5540 h1         1 T77       0.031033
     41 H8          -7.7150    -2.1220    -1.2180 h1         1 T77       0.041200
     42 H9          -8.7490    -0.7970    -1.7370 h1         1 T77       0.041200
     43 H10         -6.4030    -0.3200    -2.2290 h1         1 T77       0.034700
     44 H11         -7.0060     0.8530    -1.0400 h1         1 T77       0.034700
     45 H12         -4.8270     1.4570    -1.8120 ha         1 T77       0.124500
     46 H13         -2.5880     2.4660    -1.6500 ha         1 T77       0.119000
     47 H14         -3.8190    -1.2990     1.3670 ha         1 T77       0.124500
     48 H15         -1.5690    -0.2710     1.5380 ha         1 T77       0.119000
     49 H16         -0.9900     3.8900    -0.1210 hn         1 T77       0.362000
     50 H17          3.6670     5.3280     0.1580 h5         1 T77       0.042100
     51 H18         -0.4990    -0.7210    -1.4250 ha         1 T77       0.124000
     52 H19         -0.1800    -3.1780    -1.3760 ha         1 T77       0.112000
     53 H20          1.3430    -4.2110     0.3050 ha         1 T77       0.109000
     54 H21          2.5390    -2.7670     1.9480 ha         1 T77       0.112000
     55 H22          2.2030    -0.3120     1.9260 ha         1 T77       0.124000
     56 H23          3.2440     0.0870     0.0990 hn         1 T77       0.522000
     57 H24          5.5350     1.3070    -0.9580 h1         1 T77       0.070200
     58 H25          5.8310     1.2380     0.7860 h1         1 T77       0.070200
     59 H26          6.7840    -0.7300    -0.4330 h2         1 T77       0.100700
     60 H27          3.8820    -3.5580    -0.3700 h1         1 T77       0.085200
     61 H28          5.1780    -4.0240    -1.4760 h1         1 T77       0.085200
     62 H29          5.7920    -4.0970     1.1040 h1         1 T77       0.085200
     63 H30          6.9200    -3.1650     0.0930 h1         1 T77       0.085200
@<TRIPOS>BOND
     1     1     2 1   
     2     1    35 1   
     3     1    36 1   
     4     1    37 1   
     5     2     3 1   
     6     2     4 1   
     7     3    38 1   
     8     3    39 1   
     9     3    40 1   
    10     4     5 1   
    11     4    41 1   
    12     4    42 1   
    13     5     6 1   
    14     5    43 1   
    15     5    44 1   
    16     6     7 1   
    17     7     8 ar  
    18     7    10 ar  
    19     8     9 ar  
    20     8    45 1   
    21     9    12 ar  
    22     9    46 1   
    23    10    11 ar  
    24    10    47 1   
    25    11    12 ar  
    26    11    48 1   
    27    12    13 1   
    28    13    14 1   
    29    13    20 2   
    30    14    15 1   
    31    14    49 1   
    32    15    16 ar  
    33    15    19 ar  
    34    16    17 ar  
    35    17    18 ar  
    36    17    50 1   
    37    18    27 ar  
    38    19    20 1   
    39    19    27 ar  
    40    20    21 1   
    41    21    22 ar  
    42    21    26 ar  
    43    22    23 ar  
    44    22    51 1   
    45    23    24 ar  
    46    23    52 1   
    47    24    25 ar  
    48    24    53 1   
    49    25    26 ar  
    50    25    54 1   
    51    26    55 1   
    52    27    28 1   
    53    28    29 1   
    54    28    56 1   
    55    29    30 1   
    56    29    57 1   
    57    29    58 1   
    58    30    31 1   
    59    30    34 1   
    60    30    59 1   
    61    31    32 1   
    62    32    33 1   
    63    32    60 1   
    64    32    61 1   
    65    33    34 1   
    66    33    62 1   
    67    33    63 1   
@<TRIPOS>SUBSTRUCTURE
     1 T77         1 TEMP              0 ****  ****    0 ROOT
