@<TRIPOS>MOLECULE
T77
   63    67     1     0     0
SMALL
abcg2


@<TRIPOS>ATOM
      1 C34         -8.8460     0.3000     1.1830 c3         1 T77       0.149600
      2 N32         -8.5050    -0.9340     0.5100 n3         1 T77      -0.701600
      3 C33         -9.5850    -1.8920     0.6110 c3         1 T77       0.149600
      4 C31         -8.1250    -0.7340    -0.8720 c3         1 T77       0.166800
      5 C30         -6.8540     0.0660    -1.0570 c3         1 T77       0.164600
      6 O27         -5.8030    -0.5950    -0.3750 os         1 T77      -0.324100
      7 C24         -4.5790    -0.0430    -0.3730 ca         1 T77       0.155100
      8 C21         -4.2330     1.1160    -1.0630 ca         1 T77      -0.177500
      9 C15         -2.9330     1.6010    -0.9910 ca         1 T77      -0.056500
     10 C20         -3.6050    -0.6970     0.3870 ca         1 T77      -0.177500
     11 C14         -2.3200    -0.2020     0.4540 ca         1 T77      -0.056500
     12 C7          -1.9540     0.9570    -0.2380 ca         1 T77      -0.084800
     13 C3          -0.5950     1.4880    -0.1600 cc         1 T77       0.003700
     14 N8          -0.3770     2.8470    -0.1400 na         1 T77      -0.310400
     15 C5           0.9470     3.1000    -0.0330 ca         1 T77       0.149500
     16 N11          1.5120     4.3080     0.0340 nb         1 T77      -0.235000
     17 C18          2.8230     4.2480     0.1270 ca         1 T77       0.181900
     18 N13          3.5970     3.1640     0.1320 nb         1 T77      -0.311000
     19 C2           1.6130     1.8710    -0.0010 ca         1 T77      -0.242800
     20 C1           0.6190     0.8430    -0.0820 cd         1 T77      -0.044400
     21 C4           0.8390    -0.6110    -0.0970 ca         1 T77      -0.024800
     22 C9           0.3620    -1.3960    -1.1490 ca         1 T77      -0.099500
     23 C16          0.5530    -2.7690    -1.1490 ca         1 T77      -0.114000
     24 C22          1.2320    -3.3820    -0.1030 ca         1 T77      -0.119000
     25 C17          1.7200    -2.6100     0.9420 ca         1 T77      -0.114000
     26 C10          1.5230    -1.2360     0.9470 ca         1 T77      -0.099500
     27 C6           3.0240     1.9610     0.0530 ca         1 T77       0.437900
     28 N12          3.8220     0.8840     0.0320 nu         1 T77      -0.917100
     29 C19          5.2590     0.9740     0.0430 c3         1 T77       0.256800
     30 C23          5.8990    -0.3990     0.1450 c5         1 T77       0.196300
     31 S25          5.4840    -1.4470    -1.3070 ss         1 T77      -0.412000
     32 C28          5.1520    -3.0020    -0.4160 c5         1 T77       0.054100
     33 C29          5.7660    -2.9090     0.9700 c5         1 T77       0.054100
     34 S26          5.3690    -1.2780     1.6400 ss         1 T77      -0.412000
     35 H1          -9.1240     0.0900     2.2170 h1         1 T77       0.031033
     36 H2          -7.9960     0.9810     1.2130 h1         1 T77       0.031033
     37 H3          -9.6880     0.8330     0.7120 h1         1 T77       0.031033
     38 H5         -10.5140    -1.5580     0.1240 h1         1 T77       0.031033
     39 H6          -9.2910    -2.8380     0.1540 h1         1 T77       0.031033
     40 H7          -9.8130    -2.0870     1.6600 h1         1 T77       0.031033
     41 H8          -7.9910    -1.7140    -1.3370 h1         1 T77       0.041200
     42 H9          -8.9120    -0.2210    -1.4530 h1         1 T77       0.041200
     43 H10         -6.6410     0.1330    -2.1300 h1         1 T77       0.034700
     44 H11         -6.9660     1.0910    -0.6860 h1         1 T77       0.034700
     45 H12         -4.9510     1.6500    -1.6690 ha         1 T77       0.124500
     46 H13         -2.6900     2.4930    -1.5550 ha         1 T77       0.119000
     47 H14         -3.8710    -1.5930     0.9350 ha         1 T77       0.124500
     48 H15         -1.5950    -0.7170     1.0700 ha         1 T77       0.119000
     49 H16         -1.0980     3.5500    -0.1110 hn         1 T77       0.362000
     50 H17          3.3460     5.1970     0.1990 h5         1 T77       0.042100
     51 H18         -0.1590    -0.9230    -1.9710 ha         1 T77       0.124000
     52 H19          0.1750    -3.3620    -1.9720 ha         1 T77       0.112000
     53 H20          1.3850    -4.4540    -0.1050 ha         1 T77       0.109000
     54 H21          2.2530    -3.0760     1.7600 ha         1 T77       0.112000
     55 H22          1.8970    -0.6460     1.7750 ha         1 T77       0.124000
     56 H23          3.4160    -0.0200    -0.1560 hn         1 T77       0.522000
     57 H24          5.6380     1.4680    -0.8580 h1         1 T77       0.070200
     58 H25          5.5950     1.5790     0.8880 h1         1 T77       0.070200
     59 H26          6.9800    -0.2600     0.1660 h2         1 T77       0.100700
     60 H27          4.0770    -3.1590    -0.3570 h1         1 T77       0.085200
     61 H28          5.5980    -3.8210    -0.9810 h1         1 T77       0.085200
     62 H29          5.3430    -3.6620     1.6360 h1         1 T77       0.085200
     63 H30          6.8460    -3.0470     0.9330 h1         1 T77       0.085200
@<TRIPOS>BOND
     1     1     2 1   
     2     1    35 1   
     3     1    36 1   
     4     1    37 1   
     5     2     3 1   
     6     2     4 1   
     7     3    38 1   
     8     3    39 1   
     9     3    40 1   
    10     4     5 1   
    11     4    41 1   
    12     4    42 1   
    13     5     6 1   
    14     5    43 1   
    15     5    44 1   
    16     6     7 1   
    17     7     8 ar  
    18     7    10 ar  
    19     8     9 ar  
    20     8    45 1   
    21     9    12 ar  
    22     9    46 1   
    23    10    11 ar  
    24    10    47 1   
    25    11    12 ar  
    26    11    48 1   
    27    12    13 1   
    28    13    14 1   
    29    13    20 2   
    30    14    15 1   
    31    14    49 1   
    32    15    16 ar  
    33    15    19 ar  
    34    16    17 ar  
    35    17    18 ar  
    36    17    50 1   
    37    18    27 ar  
    38    19    20 1   
    39    19    27 ar  
    40    20    21 1   
    41    21    22 ar  
    42    21    26 ar  
    43    22    23 ar  
    44    22    51 1   
    45    23    24 ar  
    46    23    52 1   
    47    24    25 ar  
    48    24    53 1   
    49    25    26 ar  
    50    25    54 1   
    51    26    55 1   
    52    27    28 1   
    53    28    29 1   
    54    28    56 1   
    55    29    30 1   
    56    29    57 1   
    57    29    58 1   
    58    30    31 1   
    59    30    34 1   
    60    30    59 1   
    61    31    32 1   
    62    32    33 1   
    63    32    60 1   
    64    32    61 1   
    65    33    34 1   
    66    33    62 1   
    67    33    63 1   
@<TRIPOS>SUBSTRUCTURE
     1 T77         1 TEMP              0 ****  ****    0 ROOT
