@<TRIPOS>MOLECULE
T78
   54    56     1     0     0
SMALL
abcg2


@<TRIPOS>ATOM
      1 C1          34.1490   -20.7040    21.7830 c3         1 T78      -0.116100
      2 C2          33.7340   -22.0700    22.3110 c3         1 T78       0.135000
      3 C4          31.2720   -22.2690    21.9210 c          1 T78       0.582000
      4 C8          31.8700   -21.9530    24.0520 cc         1 T78       0.375900
      5 C11         28.8340   -22.3700    22.4600 ca         1 T78       0.540900
      6 O14         26.1550   -24.1470    23.8820 os         1 T78      -0.483300
      7 C15         26.8230   -24.6960    25.0290 c3         1 T78       0.127300
      8 C17         26.7390   -23.7530    26.2120 c3         1 T78      -0.115100
      9 C18         26.1220   -26.0260    25.2790 c3         1 T78       0.288000
     10 C23         26.9090   -21.9590    21.1070 ca         1 T78      -0.028000
     11 C24         28.2440   -21.7440    21.3700 ca         1 T78       0.090000
     12 C30         22.0240   -24.5010    21.0500 ca         1 T78      -0.015300
     13 C31         22.8740   -24.9330    19.8970 c3         1 T78      -0.056800
     14 C32         20.6370   -24.6560    21.0140 ca         1 T78      -0.158000
     15 C33         19.8710   -24.3030    22.1090 ca         1 T78       0.344900
     16 C35         21.7040   -23.6500    23.2660 ca         1 T78       0.434000
     17 N3          32.3480   -22.0890    22.7720 n          1 T78      -0.325300
     18 N6          30.1840   -22.1840    22.7810 n          1 T78      -0.175300
     19 N7          30.5750   -22.0150    24.0980 n2         1 T78      -0.453300
     20 C9          32.7210   -21.7710    25.2590 c3         1 T78       0.145300
     21 O10         33.3840   -20.5110    25.1670 oh         1 T78      -0.653000
     22 N12         28.1200   -23.1510    23.2640 nb         1 T78      -0.755000
     23 C13         26.8410   -23.3490    23.0300 ca         1 T78       0.625300
     24 F19         26.1960   -26.8390    24.2090 f          1 T78      -0.106000
     25 F20         26.7000   -26.6670    26.3130 f          1 T78      -0.106000
     26 F21         24.8140   -25.8800    25.5730 f          1 T78      -0.106000
     27 C22         26.1530   -22.7780    21.9380 ca         1 T78      -0.202600
     28 F25         28.9440   -20.8890    20.6070 f          1 T78      -0.143000
     29 C26         24.6990   -22.9220    21.5940 c          1 T78       0.631700
     30 O27         24.2210   -22.2990    20.6520 o          1 T78      -0.590100
     31 N28         23.9620   -23.7590    22.3690 ns         1 T78      -0.141000
     32 C29         22.5770   -23.9540    22.2150 ca         1 T78      -0.080000
     33 N34         20.4030   -23.8130    23.2360 nb         1 T78      -0.652000
     34 H1          35.1830   -20.7470    21.4370 hc         1 T78       0.054700
     35 H2          33.5190   -20.4040    20.9450 hc         1 T78       0.054700
     36 H3          34.0750   -19.9530    22.5690 hc         1 T78       0.054700
     37 H4          33.8170   -22.8290    21.5330 h1         1 T78       0.059200
     38 H5          34.3610   -22.3770    23.1450 h1         1 T78       0.059200
     39 H6          27.8550   -24.9260    24.7730 h1         1 T78       0.107700
     40 H7          27.2140   -24.2000    27.0840 hc         1 T78       0.066700
     41 H8          27.2630   -22.8300    25.9690 hc         1 T78       0.066700
     42 H9          25.7000   -23.5210    26.4450 hc         1 T78       0.066700
     43 H10         26.4350   -21.4670    20.2700 ha         1 T78       0.173000
     44 H11         23.1390   -24.0730    19.2790 hc         1 T78       0.058033
     45 H12         23.8080   -25.3770    20.2450 hc         1 T78       0.058033
     46 H13         22.3400   -25.6550    19.2810 hc         1 T78       0.058033
     47 H14         20.1640   -25.0740    20.1350 ha         1 T78       0.129000
     48 H15         18.7940   -24.4210    22.0980 h4         1 T78       0.029100
     49 H16         32.0680   -21.8200    26.1340 h1         1 T78       0.055200
     50 H17         33.4450   -22.5880    25.3190 h1         1 T78       0.055200
     51 H18         34.1630   -20.5380    25.7360 ho         1 T78       0.453000
     52 H19         24.3980   -24.1160    23.2080 hn         1 T78       0.185000
     53 O5          31.2860   -22.4890    20.7220 o          1 T78      -0.523000
     54 CL36        22.3740   -23.0130    24.7610 cl         1 T78      -0.180000
@<TRIPOS>BOND
     1     1     2 1   
     2     1    34 1   
     3     1    35 1   
     4     1    36 1   
     5     2    17 1   
     6     2    37 1   
     7     2    38 1   
     8     3    17 1   
     9     3    18 1   
    10     3    53 2   
    11     4    17 1   
    12     4    19 2   
    13     4    20 1   
    14     5    11 ar  
    15     5    18 1   
    16     5    22 ar  
    17     6     7 1   
    18     6    23 1   
    19     7     8 1   
    20     7     9 1   
    21     7    39 1   
    22     8    40 1   
    23     8    41 1   
    24     8    42 1   
    25     9    24 1   
    26     9    25 1   
    27     9    26 1   
    28    10    11 ar  
    29    10    27 ar  
    30    10    43 1   
    31    11    28 1   
    32    12    13 1   
    33    12    14 ar  
    34    12    32 ar  
    35    13    44 1   
    36    13    45 1   
    37    13    46 1   
    38    14    15 ar  
    39    14    47 1   
    40    15    33 ar  
    41    15    48 1   
    42    16    32 ar  
    43    16    33 ar  
    44    16    54 1   
    45    18    19 1   
    46    20    21 1   
    47    20    49 1   
    48    20    50 1   
    49    21    51 1   
    50    22    23 ar  
    51    23    27 ar  
    52    27    29 1   
    53    29    30 2   
    54    29    31 1   
    55    31    32 1   
    56    31    52 1   
@<TRIPOS>SUBSTRUCTURE
     1 T78         1 TEMP              0 ****  ****    0 ROOT
