@<TRIPOS>MOLECULE
T78
   54    56     1     0     0
SMALL
No Charge or Current Charge


@<TRIPOS>ATOM
      1 C1          34.3620   -20.9900    21.6950 c3         1 T78      -0.116100
      2 C2          33.7680   -22.3010    22.2380 c3         1 T78       0.135000
      3 C4          31.2760   -22.3910    22.0360 c          1 T78       0.582000
      4 C8          32.0240   -21.7660    24.0430 cc         1 T78       0.375900
      5 C11         28.8650   -22.2620    22.5690 ca         1 T78       0.540900
      6 O14         26.1580   -24.2860    23.7040 os         1 T78      -0.483300
      7 C15         26.6410   -24.8420    24.9530 c3         1 T78       0.127300
      8 C17         26.4320   -23.7730    26.0550 c3         1 T78      -0.115100
      9 C18         25.8700   -26.1680    25.2230 c3         1 T78       0.288000
     10 C23         26.9420   -21.6530    21.2390 ca         1 T78      -0.028000
     11 C24         28.2970   -21.4800    21.5420 ca         1 T78       0.090000
     12 C30         22.0220   -24.5080    21.0690 ca         1 T78      -0.015300
     13 C31         22.8450   -24.7710    19.8110 c3         1 T78      -0.056800
     14 C32         20.6520   -24.8300    21.0700 ca         1 T78      -0.158000
     15 C33         19.8920   -24.6500    22.2370 ca         1 T78       0.344900
     16 C35         21.7310   -23.8700    23.3940 ca         1 T78       0.434000
     17 N3          32.4000   -22.1360    22.7650 n          1 T78      -0.325300
     18 N6          30.2450   -22.1430    22.9270 n          1 T78      -0.175300
     19 N7          30.7180   -21.7550    24.1900 n2         1 T78      -0.453300
     20 C9          32.9920   -21.4350    25.1700 c3         1 T78       0.145300
     21 O10         33.5030   -20.0840    25.0980 oh         1 T78      -0.653000
     22 N12         28.1530   -23.1700    23.2740 nb         1 T78      -0.755000
     23 C13         26.8450   -23.3300    22.9920 ca         1 T78       0.625300
     24 F19         26.0890   -27.0610    24.2300 f          1 T78      -0.106000
     25 F20         26.2720   -26.7370    26.3830 f          1 T78      -0.106000
     26 F21         24.5350   -25.9590    25.3030 f          1 T78      -0.106000
     27 C22         26.1850   -22.5990    21.9730 ca         1 T78      -0.202600
     28 F25         29.0270   -20.5610    20.8650 f          1 T78      -0.143000
     29 C26         24.7190   -22.7640    21.6320 c          1 T78       0.631700
     30 O27         24.2230   -22.1180    20.7150 o          1 T78      -0.590100
     31 N28         23.9470   -23.6310    22.3890 ns         1 T78      -0.141000
     32 C29         22.5760   -23.9920    22.2660 ca         1 T78      -0.080000
     33 N34         20.4170   -24.1830    23.3890 nb         1 T78      -0.652000
     34 H1          35.3730   -21.1620    21.3080 hc         1 T78       0.054700
     35 H2          33.7440   -20.5960    20.8790 hc         1 T78       0.054700
     36 H3          34.4210   -20.2300    22.4830 hc         1 T78       0.054700
     37 H4          33.7560   -23.0480    21.4340 h1         1 T78       0.059200
     38 H5          34.4170   -22.6910    23.0320 h1         1 T78       0.059200
     39 H6          27.7080   -25.0960    24.8910 h1         1 T78       0.107700
     40 H7          26.7350   -24.1620    27.0340 hc         1 T78       0.066700
     41 H8          27.0340   -22.8790    25.8540 hc         1 T78       0.066700
     42 H9          25.3790   -23.4730    26.1160 hc         1 T78       0.066700
     43 H10         26.4930   -21.0520    20.4500 ha         1 T78       0.173000
     44 H11         22.8870   -23.8800    19.1730 hc         1 T78       0.058033
     45 H12         23.8720   -25.0710    20.0500 hc         1 T78       0.058033
     46 H13         22.4090   -25.5800    19.2140 hc         1 T78       0.058033
     47 H14         20.1730   -25.2270    20.1800 ha         1 T78       0.129000
     48 H15         18.8320   -24.8980    22.2510 h4         1 T78       0.029100
     49 H16         32.4700   -21.5870    26.1240 h1         1 T78       0.055200
     50 H17         33.8180   -22.1570    25.1460 h1         1 T78       0.055200
     51 H18         34.0780   -19.9490    25.8850 ho         1 T78       0.453000
     52 H19         24.4300   -24.0630    23.1670 hn         1 T78       0.185000
     53 O5          31.2010   -22.7610    20.8730 o          1 T78      -0.523000
     54 Cl36        22.3520   -23.2610    24.9260 cl         1 T78      -0.180000
@<TRIPOS>BOND
     1     1     2 1   
     2     1    34 1   
     3     1    35 1   
     4     1    36 1   
     5     2    17 1   
     6     2    37 1   
     7     2    38 1   
     8     3    17 1   
     9     3    18 1   
    10     3    53 2   
    11     4    17 1   
    12     4    19 2   
    13     4    20 1   
    14     5    11 ar  
    15     5    18 1   
    16     5    22 ar  
    17     6     7 1   
    18     6    23 1   
    19     7     8 1   
    20     7     9 1   
    21     7    39 1   
    22     8    40 1   
    23     8    41 1   
    24     8    42 1   
    25     9    24 1   
    26     9    25 1   
    27     9    26 1   
    28    10    11 ar  
    29    10    27 ar  
    30    10    43 1   
    31    11    28 1   
    32    12    13 1   
    33    12    14 ar  
    34    12    32 ar  
    35    13    44 1   
    36    13    45 1   
    37    13    46 1   
    38    14    15 ar  
    39    14    47 1   
    40    15    33 ar  
    41    15    48 1   
    42    16    32 ar  
    43    16    33 ar  
    44    16    54 1   
    45    18    19 1   
    46    20    21 1   
    47    20    49 1   
    48    20    50 1   
    49    21    51 1   
    50    22    23 ar  
    51    23    27 ar  
    52    27    29 1   
    53    29    30 2   
    54    29    31 1   
    55    31    32 1   
    56    31    52 1   
@<TRIPOS>SUBSTRUCTURE
     1 T78         1 TEMP              0 ****  ****    0 ROOT
