@<TRIPOS>MOLECULE
T79
   17    16     1     0     0
SMALL
abcg2


@<TRIPOS>ATOM
      1 N          -14.6110    30.1210   -15.6170 n8         1 T79      -0.978200
      2 O          -15.7000    31.4570   -18.7400 o          1 T79      -0.721000
      3 C          -14.8580    31.0490   -17.9160 c          1 T79       0.717000
      4 CA         -15.2760    31.1330   -16.4260 c3         1 T79       0.021500
      5 CB         -14.8750    32.5020   -15.8470 c3         1 T79       0.021700
      6 CG         -15.6120    33.6390   -16.3860 c1         1 T79      -0.061100
      7 CD1        -16.2290    34.5920   -16.7880 c1         1 T79      -0.215100
      8 CE1        -16.9800    35.7340   -17.2910 c3         1 T79       0.023000
      9 H          -15.0660    30.0720   -14.7130 hn         1 T79       0.366500
     10 H2         -14.7350    29.2100   -16.0390 hn         1 T79       0.366500
     11 HA         -16.3720    31.0600   -16.3810 h1         1 T79       0.007700
     12 HB3        -15.0260    32.4800   -14.7620 hc         1 T79       0.042700
     13 HB2        -13.8010    32.6450   -15.9990 hc         1 T79       0.042700
     14 HE1        -16.3430    36.4040   -17.8700 hc         1 T79       0.029367
     15 HE2        -17.7970    35.4140   -17.9390 hc         1 T79       0.029367
     16 HE3        -17.4140    36.3150   -16.4760 hc         1 T79       0.029367
     17 OXT        -13.7180    30.6090   -18.1610 o          1 T79      -0.721000
@<TRIPOS>BOND
     1     1     4 1   
     2     1     9 1   
     3     1    10 1   
     4     2     3 1   
     5     3     4 1   
     6     3    17 1   
     7     4     5 1   
     8     4    11 1   
     9     5     6 1   
    10     5    12 1   
    11     5    13 1   
    12     6     7 3   
    13     7     8 1   
    14     8    14 1   
    15     8    15 1   
    16     8    16 1   
@<TRIPOS>SUBSTRUCTURE
     1 T79         1 TEMP              0 ****  ****    0 ROOT
