@<TRIPOS>MOLECULE
T79
   17    16     1     0     0
SMALL
No Charge or Current Charge


@<TRIPOS>ATOM
      1 N          -14.6590    29.9950   -15.6470 n8         1 T79      -0.978200
      2 O          -15.8130    30.7830   -18.7360 o          1 T79      -0.721000
      3 C          -14.9310    31.1770   -17.9820 c          1 T79       0.717000
      4 CA         -15.2250    31.1620   -16.4210 c3         1 T79       0.021500
      5 CB         -14.8260    32.5050   -15.7470 c3         1 T79       0.021700
      6 CG         -15.5520    33.6630   -16.2910 c1         1 T79      -0.061100
      7 CD1        -16.1650    34.5960   -16.7550 c1         1 T79      -0.215100
      8 CE1        -16.9200    35.7080   -17.3430 c3         1 T79       0.023000
      9 H          -15.0190    30.0150   -14.6850 hn         1 T79       0.366500
     10 H2         -15.0370    29.1200   -16.0330 hn         1 T79       0.366500
     11 HA         -16.3160    31.0710   -16.3170 h1         1 T79       0.007700
     12 HB3        -15.0290    32.4520   -14.6700 hc         1 T79       0.042700
     13 HB2        -13.7480    32.6760   -15.8590 hc         1 T79       0.042700
     14 HE1        -16.2560    36.3500   -17.9330 hc         1 T79       0.029367
     15 HE2        -17.7120    35.3260   -17.9980 hc         1 T79       0.029367
     16 HE3        -17.3820    36.3150   -16.5540 hc         1 T79       0.029367
     17 OXT        -13.8240    31.5220   -18.3790 o          1 T79      -0.721000
@<TRIPOS>BOND
     1     1     4 1   
     2     1     9 1   
     3     1    10 1   
     4     2     3 1   
     5     3     4 1   
     6     3    17 1   
     7     4     5 1   
     8     4    11 1   
     9     5     6 1   
    10     5    12 1   
    11     5    13 1   
    12     6     7 3   
    13     7     8 1   
    14     8    14 1   
    15     8    15 1   
    16     8    16 1   
@<TRIPOS>SUBSTRUCTURE
     1 T79         1 TEMP              0 ****  ****    0 ROOT
