@<TRIPOS>MOLECULE
T7A
   25    26     1     0     0
SMALL
No Charge or Current Charge


@<TRIPOS>ATOM
      1 N1           0.0800    -0.9290    -0.0260 nc         1 T7A      -0.575100
      2 C4          -1.6870     2.3030    -0.0230 ca         1 T7A      -0.107000
      3 C5          -0.6990     1.3070    -0.0210 ca         1 T7A      -0.187000
      4 C6           1.1960    -0.1910    -0.0170 cd         1 T7A       0.425800
      5 C8           4.7770    -1.3880    -0.0030 c3         1 T7A      -0.174100
      6 N            2.4010    -0.8490    -0.0130 ns         1 T7A      -0.405400
      7 C           -4.0200    -2.2860    -0.0520 c3         1 T7A       0.142900
      8 C1          -2.3670    -0.4460    -0.0360 ca         1 T7A       0.187100
      9 C2          -3.3790     0.5480    -0.0380 ca         1 T7A      -0.208000
     10 C3          -3.0370     1.9150    -0.0310 ca         1 T7A      -0.069000
     11 C9          -1.0060    -0.0440    -0.0280 ca         1 T7A       0.086400
     12 O1           3.9310     0.8590     0.0010 o          1 T7A      -0.567100
     13 S            1.0290     1.5940    -0.0110 ss         1 T7A       0.122800
     14 H5          -1.4150     3.3570    -0.0180 ha         1 T7A       0.126000
     15 H9           4.6350    -2.0560    -0.8600 hc         1 T7A       0.069367
     16 H7           5.7800    -0.9470     0.0040 hc         1 T7A       0.069367
     17 H8           4.6260    -2.0620     0.8480 hc         1 T7A       0.069367
     18 H6           2.3600    -1.8570    -0.0170 hn         1 T7A       0.340500
     19 H1          -4.0280    -3.3830    -0.0560 h1         1 T7A       0.041367
     20 H2          -4.5630    -1.9460     0.8390 h1         1 T7A       0.041367
     21 H           -4.5540    -1.9390    -0.9460 h1         1 T7A       0.041367
     22 H3          -4.4320     0.2800    -0.0440 ha         1 T7A       0.119000
     23 H4          -3.8180     2.6730    -0.0320 ha         1 T7A       0.112000
     24 O           -2.6680    -1.7980    -0.0430 os         1 T7A      -0.312100
     25 C7           3.6760    -0.3350    -0.0050 c          1 T7A       0.608100
@<TRIPOS>BOND
     1     1     4 2   
     2     1    11 1   
     3     2     3 ar  
     4     2    10 ar  
     5     2    14 1   
     6     3    11 ar  
     7     3    13 1   
     8     4     6 1   
     9     4    13 1   
    10     5    15 1   
    11     5    16 1   
    12     5    17 1   
    13     5    25 1   
    14     6    18 1   
    15     6    25 1   
    16     7    19 1   
    17     7    20 1   
    18     7    21 1   
    19     7    24 1   
    20     8     9 ar  
    21     8    11 ar  
    22     8    24 1   
    23     9    10 ar  
    24     9    22 1   
    25    10    23 1   
    26    12    25 2   
@<TRIPOS>SUBSTRUCTURE
     1 T7A         1 TEMP              0 ****  ****    0 ROOT
