@<TRIPOS>MOLECULE
T7A
   25    26     1     0     0
SMALL
abcg2


@<TRIPOS>ATOM
      1 N1           0.0290    -0.9620    -0.0070 nc         1 T7A      -0.575100
      2 C4          -1.6410     2.2800    -0.0700 ca         1 T7A      -0.107000
      3 C5          -0.6850     1.2680    -0.0480 ca         1 T7A      -0.187000
      4 C6           1.1450    -0.3210    -0.0120 cd         1 T7A       0.425800
      5 C8           4.7380    -1.3180    -0.0180 c3         1 T7A      -0.174100
      6 N            2.3460    -0.9780     0.0040 ns         1 T7A      -0.405400
      7 C           -3.9800    -2.2020     0.0070 c3         1 T7A       0.142900
      8 C1          -2.3820    -0.4610    -0.0220 ca         1 T7A       0.187100
      9 C2          -3.3410     0.5410    -0.0430 ca         1 T7A      -0.208000
     10 C3          -2.9660     1.8900    -0.0670 ca         1 T7A      -0.069000
     11 C9          -1.0260    -0.0850    -0.0250 ca         1 T7A       0.086400
     12 O1           3.6740     0.8350     0.0000 o          1 T7A      -0.567100
     13 S            1.0480     1.4240    -0.0420 ss         1 T7A       0.122800
     14 H5          -1.3630     3.3250    -0.0890 ha         1 T7A       0.126000
     15 H9           5.0000    -1.5350    -1.0550 hc         1 T7A       0.069367
     16 H7           5.6000    -0.8560     0.4560 hc         1 T7A       0.069367
     17 H8           4.5210    -2.2640     0.4760 hc         1 T7A       0.069367
     18 H6           2.2850    -1.9870     0.0170 hn         1 T7A       0.340500
     19 H1          -3.9620    -3.2890     0.0250 h1         1 T7A       0.041367
     20 H2          -4.5150    -1.8430     0.8900 h1         1 T7A       0.041367
     21 H           -4.5120    -1.8710    -0.8880 h1         1 T7A       0.041367
     22 H3          -4.3950     0.3010    -0.0420 ha         1 T7A       0.119000
     23 H4          -3.7430     2.6430    -0.0850 ha         1 T7A       0.112000
     24 O           -2.6300    -1.7780     0.0020 os         1 T7A      -0.312100
     25 C7           3.5720    -0.3760     0.0060 c          1 T7A       0.608100
@<TRIPOS>BOND
     1     1     4 2   
     2     1    11 1   
     3     2     3 ar  
     4     2    10 ar  
     5     2    14 1   
     6     3    11 ar  
     7     3    13 1   
     8     4     6 1   
     9     4    13 1   
    10     5    15 1   
    11     5    16 1   
    12     5    17 1   
    13     5    25 1   
    14     6    18 1   
    15     6    25 1   
    16     7    19 1   
    17     7    20 1   
    18     7    21 1   
    19     7    24 1   
    20     8     9 ar  
    21     8    11 ar  
    22     8    24 1   
    23     9    10 ar  
    24     9    22 1   
    25    10    23 1   
    26    12    25 2   
@<TRIPOS>SUBSTRUCTURE
     1 T7A         1 TEMP              0 ****  ****    0 ROOT
