@<TRIPOS>MOLECULE
T7B
   25    27     1     0     0
SMALL
No Charge or Current Charge


@<TRIPOS>ATOM
      1 N1           0.5870    -3.2830   -53.3860 ns         1 T7B      -0.515900
      2 C4           0.4340    -3.4050   -56.6650 c5         1 T7B      -0.033100
      3 C5          -0.3860    -2.1700   -56.3780 ca         1 T7B      -0.069300
      4 C6          -1.3840    -1.6190   -57.1970 ca         1 T7B      -0.100000
      5 C7          -2.0680    -0.4670   -56.7600 ca         1 T7B      -0.094000
      6 C8          -1.7510     0.1140   -55.5140 ca         1 T7B      -0.113000
      7 C10         -0.0750    -1.5980   -55.1600 ca         1 T7B      -0.110300
      8 N            2.1330    -2.0570   -52.4980 ns         1 T7B      -0.485500
      9 C            1.2870    -3.0650   -52.2390 c          1 T7B       0.616000
     10 O            1.1660    -3.6610   -51.1880 o          1 T7B      -0.547000
     11 C1           2.1220    -1.5140   -53.7370 c          1 T7B       0.569000
     12 C2           1.0150    -2.3580   -54.4550 c5         1 T7B       0.081700
     13 C3           1.6010    -3.2610   -55.6110 c5         1 T7B      -0.075400
     14 C9          -0.7490    -0.4530   -54.7020 ca         1 T7B      -0.069000
     15 O1           2.8140    -0.5830   -54.1200 o          1 T7B      -0.499000
     16 H1          -0.1380    -3.9890   -53.4230 hn         1 T7B       0.352500
     17 H2          -0.1500    -4.3160   -56.4940 hc         1 T7B       0.060200
     18 H3           0.8080    -3.4410   -57.6940 hc         1 T7B       0.060200
     19 H4          -1.6290    -2.0760   -58.1530 ha         1 T7B       0.118000
     20 H5          -2.8440    -0.0280   -57.3830 ha         1 T7B       0.116000
     21 H6          -2.2840     1.0010   -55.1770 ha         1 T7B       0.119000
     22 H7           2.7570    -1.7120   -51.7860 hn         1 T7B       0.356500
     23 H8           1.9810    -4.2290   -55.2640 hc         1 T7B       0.070200
     24 H9           2.4500    -2.7530   -56.0840 hc         1 T7B       0.070200
     25 H10         -0.5050    -0.0120   -53.7380 ha         1 T7B       0.121000
@<TRIPOS>BOND
     1     1     9 1   
     2     1    12 1   
     3     1    16 1   
     4     2     3 1   
     5     2    13 1   
     6     2    17 1   
     7     2    18 1   
     8     3     4 ar  
     9     3     7 ar  
    10     4     5 ar  
    11     4    19 1   
    12     5     6 ar  
    13     5    20 1   
    14     6    14 ar  
    15     6    21 1   
    16     7    12 1   
    17     7    14 ar  
    18     8     9 1   
    19     8    11 1   
    20     8    22 1   
    21     9    10 2   
    22    11    12 1   
    23    11    15 2   
    24    12    13 1   
    25    13    23 1   
    26    13    24 1   
    27    14    25 1   
@<TRIPOS>SUBSTRUCTURE
     1 T7B         1 TEMP              0 ****  ****    0 ROOT
