@<TRIPOS>MOLECULE
T7B
   25    27     1     0     0
SMALL
abcg2


@<TRIPOS>ATOM
      1 N1           0.5640    -3.2530   -53.3760 ns         1 T7B      -0.515900
      2 C4           0.4900    -3.3840   -56.7140 c5         1 T7B      -0.033100
      3 C5          -0.3610    -2.1780   -56.4110 ca         1 T7B      -0.069300
      4 C6          -1.3710    -1.6020   -57.1740 ca         1 T7B      -0.100000
      5 C7          -2.0470    -0.4910   -56.6750 ca         1 T7B      -0.094000
      6 C8          -1.7260     0.0370   -55.4240 ca         1 T7B      -0.113000
      7 C10         -0.0460    -1.6430   -55.1640 ca         1 T7B      -0.110300
      8 N            2.1110    -1.9620   -52.4890 ns         1 T7B      -0.485500
      9 C            1.1610    -2.9580   -52.2030 c          1 T7B       0.616000
     10 O            0.9570    -3.4320   -51.0990 o          1 T7B      -0.547000
     11 C1           2.1200    -1.6030   -53.8030 c          1 T7B       0.569000
     12 C2           1.0510    -2.4560   -54.4990 c5         1 T7B       0.081700
     13 C3           1.6240    -3.2880   -55.6760 c5         1 T7B      -0.075400
     14 C9          -0.7200    -0.5420   -54.6550 ca         1 T7B      -0.069000
     15 O1           2.8330    -0.7720   -54.3270 o          1 T7B      -0.499000
     16 H1          -0.2040    -3.9020   -53.4380 hn         1 T7B       0.352500
     17 H2          -0.0940    -4.3000   -56.5830 hc         1 T7B       0.060200
     18 H3           0.8680    -3.3870   -57.7370 hc         1 T7B       0.060200
     19 H4          -1.6260    -2.0070   -58.1460 ha         1 T7B       0.118000
     20 H5          -2.8290    -0.0300   -57.2660 ha         1 T7B       0.116000
     21 H6          -2.2590     0.9030   -55.0520 ha         1 T7B       0.119000
     22 H7           2.7130    -1.5670   -51.7810 hn         1 T7B       0.356500
     23 H8           1.9920    -4.2520   -55.3310 hc         1 T7B       0.070200
     24 H9           2.4600    -2.7300   -56.1000 hc         1 T7B       0.070200
     25 H10         -0.4690    -0.1360   -53.6830 ha         1 T7B       0.121000
@<TRIPOS>BOND
     1     1     9 1   
     2     1    12 1   
     3     1    16 1   
     4     2     3 1   
     5     2    13 1   
     6     2    17 1   
     7     2    18 1   
     8     3     4 ar  
     9     3     7 ar  
    10     4     5 ar  
    11     4    19 1   
    12     5     6 ar  
    13     5    20 1   
    14     6    14 ar  
    15     6    21 1   
    16     7    12 1   
    17     7    14 ar  
    18     8     9 1   
    19     8    11 1   
    20     8    22 1   
    21     9    10 2   
    22    11    12 1   
    23    11    15 2   
    24    12    13 1   
    25    13    23 1   
    26    13    24 1   
    27    14    25 1   
@<TRIPOS>SUBSTRUCTURE
     1 T7B         1 TEMP              0 ****  ****    0 ROOT
