@<TRIPOS>MOLECULE
T7C
   26    25     1     0     0
SMALL
abcg2


@<TRIPOS>ATOM
      1 C12        -15.5840     8.7220    -9.0380 c          1 T7C       0.560100
      2 CA         -18.3990    10.4010    -8.3470 c3         1 T7C       0.180800
      3 C13        -15.9760    10.1930    -8.8570 c3         1 T7C       0.107800
      4 C1         -18.8820     8.9580    -8.5250 c3         1 T7C       0.017600
      5 C2         -21.2900     8.8840    -6.3270 c3         1 T7C      -0.208400
      6 C          -21.6720     7.3910    -6.2920 c          1 T7C       0.716000
      7 C4         -21.5410     9.5530    -7.6700 c3         1 T7C       0.110600
      8 N1         -15.7880     7.8970    -7.9990 nt         1 T7C      -0.599000
      9 N          -17.0150    10.5790    -7.9290 n7         1 T7C      -0.920400
     10 O          -22.8170     7.0900    -6.7170 o          1 T7C      -0.736000
     11 O5         -15.0370     8.3570   -10.0800 o          1 T7C      -0.632100
     12 S1         -20.6150     8.8270    -9.0720 ss         1 T7C      -0.457000
     13 HA2        -18.5370    10.9330    -9.2920 h1         1 T7C       0.055200
     14 HA3        -19.0260    10.9000    -7.6060 h1         1 T7C       0.055200
     15 H3         -15.0430    10.6960    -8.5780 h1         1 T7C       0.069200
     16 H4         -16.2400    10.5570    -9.8510 h1         1 T7C       0.069200
     17 H5         -18.7510     8.3880    -7.6050 h1         1 T7C       0.072700
     18 H6         -18.3200     8.4520    -9.3100 h1         1 T7C       0.072700
     19 H7         -20.2510     9.0070    -6.0230 hc         1 T7C       0.021200
     20 H8         -21.9040     9.4010    -5.5800 hc         1 T7C       0.021200
     21 H11        -21.3290    10.6210    -7.6190 h1         1 T7C       0.049200
     22 H12        -22.5840     9.4330    -7.9630 h1         1 T7C       0.049200
     23 H13        -15.5390     6.9230    -8.0780 hn         1 T7C       0.316500
     24 H14        -16.2830     8.1930    -7.1750 hn         1 T7C       0.316500
     25 H          -16.8460    10.2940    -6.9730 hn         1 T7C       0.428000
     26 OXT        -20.8210     6.5900    -5.8240 o          1 T7C      -0.736000
@<TRIPOS>BOND
     1     1     3 1   
     2     1     8 1   
     3     1    11 2   
     4     2     4 1   
     5     2     9 1   
     6     2    13 1   
     7     2    14 1   
     8     3     9 1   
     9     3    15 1   
    10     3    16 1   
    11     4    12 1   
    12     4    17 1   
    13     4    18 1   
    14     5     6 1   
    15     5     7 1   
    16     5    19 1   
    17     5    20 1   
    18     6    10 1   
    19     6    26 1   
    20     7    12 1   
    21     7    21 1   
    22     7    22 1   
    23     8    23 1   
    24     8    24 1   
    25     9    25 1   
@<TRIPOS>SUBSTRUCTURE
     1 T7C         1 TEMP              0 ****  ****    0 ROOT
