@<TRIPOS>MOLECULE
T7C
   26    25     1     0     0
SMALL
No Charge or Current Charge


@<TRIPOS>ATOM
      1 C12        -15.5540     8.7230    -8.9820 c          1 T7C       0.560100
      2 CA         -18.3630    10.4720    -8.6460 c3         1 T7C       0.180800
      3 C13        -15.8260    10.2620    -8.9860 c3         1 T7C       0.107800
      4 C1         -18.8150     9.0090    -8.4130 c3         1 T7C       0.017600
      5 C2         -21.5080     8.5000    -6.2290 c3         1 T7C      -0.208400
      6 C          -22.4840     7.3450    -6.4970 c          1 T7C       0.716000
      7 C4         -21.4710     9.4690    -7.4310 c3         1 T7C       0.110600
      8 N1         -15.1420     8.1890    -7.8080 nt         1 T7C      -0.599000
      9 N          -16.9870    10.7370    -8.1470 n7         1 T7C      -0.920400
     10 O          -23.6690     7.5350    -6.2680 o          1 T7C      -0.736000
     11 O5         -15.6980     8.0040    -9.9590 o          1 T7C      -0.632100
     12 S1         -20.5900     8.7570    -8.9000 ss         1 T7C      -0.457000
     13 HA2        -18.4430    10.7090    -9.7160 h1         1 T7C       0.055200
     14 HA3        -19.0680    11.1310    -8.1210 h1         1 T7C       0.055200
     15 H3         -14.8980    10.7330    -8.6320 h1         1 T7C       0.069200
     16 H4         -15.9530    10.5680   -10.0340 h1         1 T7C       0.069200
     17 H5         -18.6810     8.7370    -7.3580 h1         1 T7C       0.072700
     18 H6         -18.2000     8.3350    -9.0200 h1         1 T7C       0.072700
     19 H7         -20.4880     8.1340    -6.0690 hc         1 T7C       0.021200
     20 H8         -21.8850     9.1150    -5.4030 hc         1 T7C       0.021200
     21 H11        -20.9690    10.3990    -7.1350 h1         1 T7C       0.049200
     22 H12        -22.4980     9.7250    -7.7240 h1         1 T7C       0.049200
     23 H13        -14.9540     7.1990    -7.7540 hn         1 T7C       0.316500
     24 H14        -15.0090     8.7800    -7.0000 hn         1 T7C       0.316500
     25 H          -16.8980    10.3880    -7.1820 hn         1 T7C       0.428000
     26 OXT        -22.0410     6.2860    -6.9150 o          1 T7C      -0.736000
@<TRIPOS>BOND
     1     1     3 1   
     2     1     8 1   
     3     1    11 2   
     4     2     4 1   
     5     2     9 1   
     6     2    13 1   
     7     2    14 1   
     8     3     9 1   
     9     3    15 1   
    10     3    16 1   
    11     4    12 1   
    12     4    17 1   
    13     4    18 1   
    14     5     6 1   
    15     5     7 1   
    16     5    19 1   
    17     5    20 1   
    18     6    10 1   
    19     6    26 1   
    20     7    12 1   
    21     7    21 1   
    22     7    22 1   
    23     8    23 1   
    24     8    24 1   
    25     9    25 1   
@<TRIPOS>SUBSTRUCTURE
     1 T7C         1 TEMP              0 ****  ****    0 ROOT
