@<TRIPOS>MOLECULE
T7D
   36    37     1     0     0
SMALL
bcc


@<TRIPOS>ATOM
      1 N1           0.6410     0.0320     0.2920 ns         1 T7D      -0.571900
      2 C4          -0.7080    -0.4220     0.5670 c6         1 T7D       0.115700
      3 C5          -1.3900    -0.9920    -0.6770 c6         1 T7D      -0.117900
      4 C6          -2.8400    -1.3570    -0.3750 c6         1 T7D       0.097500
      5 C7           1.7170    -0.7700     0.3130 c          1 T7D       0.681700
      6 C8           3.0250    -0.1190    -0.0100 ca         1 T7D      -0.150600
      7 C10          5.4210    -0.1020     0.2670 ca         1 T7D      -0.137000
      8 C13          3.1260     0.9960    -0.8410 ca         1 T7D      -0.091500
      9 N           -3.5520    -0.2110     0.1630 n          1 T7D      -0.478800
     10 C           -5.0540     1.7150     0.0090 c3         1 T7D      -0.177100
     11 O           -4.8250     0.0530    -1.6820 o          1 T7D      -0.601100
     12 C1          -4.4660     0.4540    -0.5810 c          1 T7D       0.672100
     13 C11          5.5140     1.0160    -0.5520 ca         1 T7D      -0.107000
     14 C12          4.3660     1.5580    -1.1120 ca         1 T7D      -0.137000
     15 C2          -2.9640     0.2950     1.3890 c6         1 T7D       0.097500
     16 C3          -1.5210     0.7270     1.1540 c6         1 T7D      -0.117900
     17 C9           4.1850    -0.6720     0.5280 ca         1 T7D      -0.091500
     18 O1           1.6580    -1.9590     0.6000 o          1 T7D      -0.603100
     19 H11          0.7660     1.0140     0.1080 hn         1 T7D       0.314500
     20 H6          -0.6460    -1.2150     1.3200 h1         1 T7D       0.074700
     21 H8          -1.3570    -0.2560    -1.4860 hc         1 T7D       0.056700
     22 H7          -0.8550    -1.8800    -1.0200 hc         1 T7D       0.056700
     23 H10         -3.3450    -1.7160    -1.2660 h1         1 T7D       0.059950
     24 H9          -2.8740    -2.1620     0.3670 h1         1 T7D       0.059950
     25 H13          6.3140    -0.5310     0.7030 ha         1 T7D       0.135000
     26 H16          2.2490     1.4230    -1.3100 ha         1 T7D       0.140500
     27 H           -4.2900     2.4770     0.1720 hc         1 T7D       0.059367
     28 H17         -5.7950     2.1160    -0.6780 hc         1 T7D       0.059367
     29 H1          -5.5390     1.5300     0.9680 hc         1 T7D       0.059367
     30 H14          6.4800     1.4600    -0.7570 ha         1 T7D       0.133000
     31 H15          4.4320     2.4190    -1.7650 ha         1 T7D       0.135000
     32 H3          -3.5470     1.1200     1.7850 h1         1 T7D       0.059950
     33 H2          -2.9950    -0.5000     2.1400 h1         1 T7D       0.059950
     34 H5          -1.0800     1.0540     2.0980 hc         1 T7D       0.056700
     35 H4          -1.5110     1.5830     0.4710 hc         1 T7D       0.056700
     36 H12          4.1180    -1.5440     1.1650 ha         1 T7D       0.140500
@<TRIPOS>BOND
     1     1     2 1   
     2     1     5 1   
     3     1    19 1   
     4     2     3 1   
     5     2    16 1   
     6     2    20 1   
     7     3     4 1   
     8     3    21 1   
     9     3    22 1   
    10     4     9 1   
    11     4    23 1   
    12     4    24 1   
    13     5     6 1   
    14     5    18 2   
    15     6     8 ar  
    16     6    17 ar  
    17     7    13 ar  
    18     7    17 ar  
    19     7    25 1   
    20     8    14 ar  
    21     8    26 1   
    22     9    12 1   
    23     9    15 1   
    24    10    12 1   
    25    10    27 1   
    26    10    28 1   
    27    10    29 1   
    28    11    12 2   
    29    13    14 ar  
    30    13    30 1   
    31    14    31 1   
    32    15    16 1   
    33    15    32 1   
    34    15    33 1   
    35    16    34 1   
    36    16    35 1   
    37    17    36 1   
@<TRIPOS>SUBSTRUCTURE
     1 T7D         1 TEMP              0 ****  ****    0 ROOT
