@<TRIPOS>MOLECULE
T7D
   36    37     1     0     0
SMALL
No Charge or Current Charge


@<TRIPOS>ATOM
      1 N1           0.6770     0.0530     0.3920 ns         1 T7D      -0.504900
      2 C4          -0.7000    -0.3500     0.6960 c6         1 T7D       0.115700
      3 C5          -1.3440    -1.0590    -0.5210 c6         1 T7D      -0.117900
      4 C6          -2.8230    -1.4100    -0.2400 c6         1 T7D       0.097500
      5 C7           1.7870    -0.7620     0.4570 c          1 T7D       0.614700
      6 C8           3.1140    -0.1370     0.0730 ca         1 T7D      -0.150600
      7 C10          5.5370    -0.3740    -0.2270 ca         1 T7D      -0.119000
      8 C13          3.2230     1.2160    -0.3370 ca         1 T7D      -0.073500
      9 N           -3.5880    -0.1930     0.1410 n          1 T7D      -0.411800
     10 C           -5.3440     1.6090    -0.2360 c3         1 T7D      -0.177100
     11 O           -4.9170    -0.1980    -1.7360 o          1 T7D      -0.601100
     12 C1          -4.6040     0.3460    -0.6850 c          1 T7D       0.605100
     13 C11          5.6300     0.9660    -0.6310 ca         1 T7D      -0.089000
     14 C12          4.4730     1.7590    -0.6850 ca         1 T7D      -0.119000
     15 C2          -3.0200     0.4970     1.3310 c6         1 T7D       0.097500
     16 C3          -1.5460     0.8900     1.0770 c6         1 T7D      -0.117900
     17 C9           4.2900    -0.9220     0.1220 ca         1 T7D      -0.073500
     18 O1           1.6930    -1.9300     0.8100 o          1 T7D      -0.603100
     19 H11          0.8360     1.0050     0.0940 hn         1 T7D       0.314500
     20 H6          -0.6840    -1.0440     1.5510 h1         1 T7D       0.074700
     21 H8          -1.2850    -0.4130    -1.4080 hc         1 T7D       0.056700
     22 H7          -0.7880    -1.9750    -0.7620 hc         1 T7D       0.056700
     23 H10         -3.2600    -1.8930    -1.1250 h1         1 T7D       0.059950
     24 H9          -2.8780    -2.1380     0.5830 h1         1 T7D       0.059950
     25 H13          6.4320    -0.9910    -0.1850 ha         1 T7D       0.117000
     26 H16          2.3520     1.8630    -0.3930 ha         1 T7D       0.122500
     27 H           -4.6230     2.4260    -0.1260 hc         1 T7D       0.059367
     28 H17         -6.1510     1.8870    -0.9230 hc         1 T7D       0.059367
     29 H1          -5.7160     1.4690     0.7840 hc         1 T7D       0.059367
     30 H14          6.5950     1.3890    -0.9010 ha         1 T7D       0.115000
     31 H15          4.5440     2.7980    -0.9990 ha         1 T7D       0.117000
     32 H3          -3.5910     1.3940     1.6030 h1         1 T7D       0.059950
     33 H2          -3.0710    -0.1830     2.1940 h1         1 T7D       0.059950
     34 H5          -1.1310     1.3650     1.9760 hc         1 T7D       0.056700
     35 H4          -1.5030     1.6390     0.2740 hc         1 T7D       0.056700
     36 H12          4.2420    -1.9640     0.4320 ha         1 T7D       0.122500
@<TRIPOS>BOND
     1     1     2 1   
     2     1     5 1   
     3     1    19 1   
     4     2     3 1   
     5     2    16 1   
     6     2    20 1   
     7     3     4 1   
     8     3    21 1   
     9     3    22 1   
    10     4     9 1   
    11     4    23 1   
    12     4    24 1   
    13     5     6 1   
    14     5    18 2   
    15     6     8 ar  
    16     6    17 ar  
    17     7    13 ar  
    18     7    17 ar  
    19     7    25 1   
    20     8    14 ar  
    21     8    26 1   
    22     9    12 1   
    23     9    15 1   
    24    10    12 1   
    25    10    27 1   
    26    10    28 1   
    27    10    29 1   
    28    11    12 2   
    29    13    14 ar  
    30    13    30 1   
    31    14    31 1   
    32    15    16 1   
    33    15    32 1   
    34    15    33 1   
    35    16    34 1   
    36    16    35 1   
    37    17    36 1   
@<TRIPOS>SUBSTRUCTURE
     1 T7D         1 TEMP              0 ****  ****    0 ROOT
