@<TRIPOS>MOLECULE
T7G
   37    38     1     0     0
SMALL
abcg2


@<TRIPOS>ATOM
      1 N1          -3.7360     0.1640    -0.3000 n          1 T7G      -0.413800
      2 C4           3.4190    -1.5290    -0.2140 ca         1 T7G      -0.068000
      3 C5           2.8800    -0.2520    -0.2930 ca         1 T7G      -0.155000
      4 C6           0.4990    -0.0100     0.0980 c          1 T7G       0.595100
      5 C7          -0.8610     0.0920    -0.5580 c6         1 T7G      -0.139700
      6 C8          -1.6820    -1.1650    -0.2530 c6         1 T7G      -0.091900
      7 C10         -3.0170     1.3820    -0.6320 c6         1 T7G       0.097500
      8 C13         -5.4080    -1.1480     0.9120 c3         1 T7G      -0.177100
      9 N            1.5560    -0.0410    -0.7540 ns         1 T7G      -0.184000
     10 C            3.6430     0.8530     0.0930 ca         1 T7G       0.160100
     11 O            3.1620     2.1060     0.0280 oh         1 T7G      -0.525100
     12 C1           4.9400     0.6600     0.5610 ca         1 T7G      -0.145000
     13 C11         -1.6010     1.3420    -0.0740 c6         1 T7G      -0.091900
     14 C12         -4.7870     0.1810     0.5490 c          1 T7G       0.609100
     15 C2           5.4650    -0.6200     0.6370 ca         1 T7G      -0.067000
     16 C3           4.7120    -1.7210     0.2460 ca         1 T7G      -0.145000
     17 C9          -3.0940    -1.0330    -0.8090 c6         1 T7G       0.097500
     18 O1           0.6390    -0.0530     1.3070 o          1 T7G      -0.564100
     19 O2          -5.2340     1.2250     1.0100 o          1 T7G      -0.602100
     20 H6          -0.7400     0.1660    -1.6440 hc         1 T7G       0.048700
     21 H7          -1.2060    -2.0450    -0.6910 hc         1 T7G       0.062700
     22 H8          -1.7320    -1.3250     0.8270 hc         1 T7G       0.062700
     23 H11         -2.9850     1.4810    -1.7230 h1         1 T7G       0.055950
     24 H12         -3.5570     2.2400    -0.2430 h1         1 T7G       0.055950
     25 H17         -5.7720    -1.6830     0.0340 hc         1 T7G       0.060700
     26 H15         -4.6980    -1.8010     1.4210 hc         1 T7G       0.060700
     27 H16         -6.2480    -0.9730     1.5790 hc         1 T7G       0.060700
     28 H5           1.3780    -0.0930    -1.7460 hn         1 T7G       0.153000
     29 H            2.3010     2.1010    -0.4110 ho         1 T7G       0.471000
     30 H1           5.5300     1.5180     0.8590 ha         1 T7G       0.132000
     31 H13         -1.6390     1.3550     1.0180 hc         1 T7G       0.062700
     32 H14         -1.0700     2.2430    -0.3920 hc         1 T7G       0.062700
     33 H2           6.4740    -0.7570     1.0030 ha         1 T7G       0.117000
     34 H3           5.1250    -2.7180     0.3070 ha         1 T7G       0.118000
     35 H9          -3.6750    -1.9170    -0.5630 h1         1 T7G       0.055950
     36 H10         -3.0600    -0.9720    -1.9020 h1         1 T7G       0.055950
     37 H4           2.8120    -2.3730    -0.5170 ha         1 T7G       0.114000
@<TRIPOS>BOND
     1     1     7 1   
     2     1    14 1   
     3     1    17 1   
     4     2     3 ar  
     5     2    16 ar  
     6     2    37 1   
     7     3     9 1   
     8     3    10 ar  
     9     4     5 1   
    10     4     9 1   
    11     4    18 2   
    12     5     6 1   
    13     5    13 1   
    14     5    20 1   
    15     6    17 1   
    16     6    21 1   
    17     6    22 1   
    18     7    13 1   
    19     7    23 1   
    20     7    24 1   
    21     8    14 1   
    22     8    25 1   
    23     8    26 1   
    24     8    27 1   
    25     9    28 1   
    26    10    11 1   
    27    10    12 ar  
    28    11    29 1   
    29    12    15 ar  
    30    12    30 1   
    31    13    31 1   
    32    13    32 1   
    33    14    19 2   
    34    15    16 ar  
    35    15    33 1   
    36    16    34 1   
    37    17    35 1   
    38    17    36 1   
@<TRIPOS>SUBSTRUCTURE
     1 T7G         1 TEMP              0 ****  ****    0 ROOT
