@<TRIPOS>MOLECULE
T7G
   37    38     1     0     0
SMALL
No Charge or Current Charge


@<TRIPOS>ATOM
      1 N1          -3.8130     0.0340    -0.5480 n          1 T7G      -0.413800
      2 C4           3.7580    -0.9670    -1.0620 ca         1 T7G      -0.068000
      3 C5           2.9860    -0.2630    -0.1140 ca         1 T7G      -0.155000
      4 C6           0.4620     0.1140     0.3920 c          1 T7G       0.595100
      5 C7          -0.9020    -0.0770    -0.3090 c6         1 T7G      -0.139700
      6 C8          -1.8100    -1.1330     0.3820 c6         1 T7G      -0.091900
      7 C10         -2.9870     0.9990    -1.3210 c6         1 T7G       0.097500
      8 C13         -5.7790    -0.6120     0.9310 c3         1 T7G      -0.177100
      9 N            1.5720    -0.2740    -0.3500 ns         1 T7G      -0.184000
     10 C            3.6650     0.3990     0.9500 ca         1 T7G       0.160100
     11 O            3.0160     1.1240     1.9010 oh         1 T7G      -0.525100
     12 C1           5.0660     0.3360     1.0390 ca         1 T7G      -0.145000
     13 C11         -1.6380     1.2590    -0.6070 c6         1 T7G      -0.091900
     14 C12         -4.9860     0.4300     0.1390 c          1 T7G       0.609100
     15 C2           5.8140    -0.3770     0.0900 ca         1 T7G      -0.067000
     16 C3           5.1570    -1.0280    -0.9620 ca         1 T7G      -0.145000
     17 C9          -3.1490    -1.2890    -0.3780 c6         1 T7G       0.097500
     18 O1           0.5290     0.5730     1.5250 o          1 T7G      -0.564100
     19 O2          -5.3880     1.5860     0.0860 o          1 T7G      -0.602100
     20 H6          -0.6620    -0.5010    -1.2950 hc         1 T7G       0.048700
     21 H7          -1.2970    -2.1030     0.4360 hc         1 T7G       0.062700
     22 H8          -2.0160    -0.8260     1.4170 hc         1 T7G       0.062700
     23 H11         -2.7960     0.5840    -2.3210 h1         1 T7G       0.055950
     24 H12         -3.5170     1.9510    -1.4650 h1         1 T7G       0.055950
     25 H17         -5.9940    -1.4710     0.2860 hc         1 T7G       0.060700
     26 H15         -5.1330    -1.0410     1.7050 hc         1 T7G       0.060700
     27 H16         -6.6950    -0.1990     1.3670 hc         1 T7G       0.060700
     28 H5           1.3270    -0.6530    -1.2560 hn         1 T7G       0.153000
     29 H            2.0430     0.9530     1.8020 ho         1 T7G       0.471000
     30 H1           5.5770     0.8460     1.8520 ha         1 T7G       0.132000
     31 H13         -1.8250     1.7970     0.3330 hc         1 T7G       0.062700
     32 H14         -1.0090     1.9140    -1.2250 hc         1 T7G       0.062700
     33 H2           6.8990    -0.4210     0.1690 ha         1 T7G       0.117000
     34 H3           5.7310    -1.5790    -1.7030 ha         1 T7G       0.118000
     35 H9          -3.7870    -2.0090     0.1490 h1         1 T7G       0.055950
     36 H10         -2.9520    -1.7140    -1.3730 h1         1 T7G       0.055950
     37 H4           3.2680    -1.4780    -1.8900 ha         1 T7G       0.114000
@<TRIPOS>BOND
     1     1     7 1   
     2     1    14 1   
     3     1    17 1   
     4     2     3 ar  
     5     2    16 ar  
     6     2    37 1   
     7     3     9 1   
     8     3    10 ar  
     9     4     5 1   
    10     4     9 1   
    11     4    18 2   
    12     5     6 1   
    13     5    13 1   
    14     5    20 1   
    15     6    17 1   
    16     6    21 1   
    17     6    22 1   
    18     7    13 1   
    19     7    23 1   
    20     7    24 1   
    21     8    14 1   
    22     8    25 1   
    23     8    26 1   
    24     8    27 1   
    25     9    28 1   
    26    10    11 1   
    27    10    12 ar  
    28    11    29 1   
    29    12    15 ar  
    30    12    30 1   
    31    13    31 1   
    32    13    32 1   
    33    14    19 2   
    34    15    16 ar  
    35    15    33 1   
    36    16    34 1   
    37    17    35 1   
    38    17    36 1   
@<TRIPOS>SUBSTRUCTURE
     1 T7G         1 TEMP              0 ****  ****    0 ROOT
