@<TRIPOS>MOLECULE
T7H
   24    23     1     0     0
SMALL
abcg2


@<TRIPOS>ATOM
      1 C12        -13.7570    -0.5770     1.3950 c3         1 T7H       0.011800
      2 C13        -12.4780    -1.3520     1.7940 c          1 T7H       0.680000
      3 CA         -15.3910    -2.3450     0.9200 c3         1 T7H       0.182800
      4 C1         -16.8270    -1.9810     1.2830 c3         1 T7H       0.072600
      5 C2         -19.5930    -0.2510     1.9750 c3         1 T7H      -0.197400
      6 C          -19.3390     1.2620     1.8250 c          1 T7H       0.721000
      7 C4         -18.7440    -0.9260     3.0440 c3         1 T7H       0.092600
      8 N          -14.6080    -1.2190     0.3970 n7         1 T7H      -0.840400
      9 O          -19.2620     1.9360     2.8850 o          1 T7H      -0.745000
     10 O2         -12.0650    -2.2360     1.0030 o          1 T7H      -0.758000
     11 O5         -11.9300    -0.9950     2.8700 o          1 T7H      -0.758000
     12 S1         -16.9450    -0.8720     2.7320 ss         1 T7H      -0.433000
     13 OXT        -19.2550     1.7130     0.6530 o          1 T7H      -0.745000
     14 H1         -13.4250     0.3940     1.0110 h1         1 T7H       0.047200
     15 H11        -14.3360    -0.3680     2.2940 h1         1 T7H       0.047200
     16 HA2        -15.4530    -3.1050     0.1380 h1         1 T7H       0.020200
     17 HA3        -14.9020    -2.8190     1.7820 h1         1 T7H       0.020200
     18 H5         -17.3070    -1.5040     0.4280 h1         1 T7H       0.040700
     19 H6         -17.3760    -2.8930     1.5290 h1         1 T7H       0.040700
     20 H7         -20.6460    -0.3790     2.2540 hc         1 T7H       0.012700
     21 H8         -19.4590    -0.7400     1.0100 hc         1 T7H       0.012700
     22 H9         -18.8730    -0.4200     4.0000 h1         1 T7H       0.036700
     23 H10        -19.0310    -1.9720     3.1690 h1         1 T7H       0.036700
     24 H          -13.9820    -1.5870    -0.3120 hn         1 T7H       0.400000
@<TRIPOS>BOND
     1     1     2 1   
     2     1     8 1   
     3     1    14 1   
     4     1    15 1   
     5     2    10 1   
     6     2    11 1   
     7     3     4 1   
     8     3     8 1   
     9     3    16 1   
    10     3    17 1   
    11     4    12 1   
    12     4    18 1   
    13     4    19 1   
    14     5     6 1   
    15     5     7 1   
    16     5    20 1   
    17     5    21 1   
    18     6     9 1   
    19     6    13 1   
    20     7    12 1   
    21     7    22 1   
    22     7    23 1   
    23     8    24 1   
@<TRIPOS>SUBSTRUCTURE
     1 T7H         1 TEMP              0 ****  ****    0 ROOT
