@<TRIPOS>MOLECULE
T7H
   24    23     1     0     0
SMALL
No Charge or Current Charge


@<TRIPOS>ATOM
      1 C12        -13.9240    -0.5260     0.9260 c3         1 T7H       0.011800
      2 C13        -12.7980    -0.9290     1.9500 c          1 T7H       0.680000
      3 CA         -15.3510    -2.6350     0.9010 c3         1 T7H       0.182800
      4 C1         -16.7910    -2.1390     1.2140 c3         1 T7H       0.072600
      5 C2         -19.4320    -0.0530     1.9820 c3         1 T7H      -0.197400
      6 C          -19.1530     1.4080     2.3730 c          1 T7H       0.721000
      7 C4         -18.7450    -1.0240     2.9680 c3         1 T7H       0.092600
      8 N          -14.5300    -1.6580     0.1400 n7         1 T7H      -0.840400
      9 O          -19.8650     1.9170     3.2270 o          1 T7H      -0.745000
     10 O2         -11.9340    -1.7170     1.5850 o          1 T7H      -0.758000
     11 O5         -12.8190    -0.4370     3.0700 o          1 T7H      -0.758000
     12 S1         -16.9070    -1.0980     2.7510 ss         1 T7H      -0.433000
     13 OXT        -18.2460     2.0050     1.8120 o          1 T7H      -0.745000
     14 H1         -13.4580     0.1880     0.2330 h1         1 T7H       0.047200
     15 H11        -14.6970     0.0310     1.4690 h1         1 T7H       0.047200
     16 HA2        -15.4570    -3.5390     0.2850 h1         1 T7H       0.020200
     17 HA3        -14.8500    -2.9440     1.8290 h1         1 T7H       0.020200
     18 H5         -17.1920    -1.5850     0.3560 h1         1 T7H       0.040700
     19 H6         -17.4270    -3.0200     1.3680 h1         1 T7H       0.040700
     20 H7         -20.5010    -0.2670     2.1000 hc         1 T7H       0.012700
     21 H8         -19.0530    -0.2810     0.9790 hc         1 T7H       0.012700
     22 H9         -18.9680    -0.7180     3.9980 h1         1 T7H       0.036700
     23 H10        -19.1480    -2.0350     2.8240 h1         1 T7H       0.036700
     24 H          -13.7390    -2.1810    -0.2600 hn         1 T7H       0.400000
@<TRIPOS>BOND
     1     1     2 1   
     2     1     8 1   
     3     1    14 1   
     4     1    15 1   
     5     2    10 1   
     6     2    11 1   
     7     3     4 1   
     8     3     8 1   
     9     3    16 1   
    10     3    17 1   
    11     4    12 1   
    12     4    18 1   
    13     4    19 1   
    14     5     6 1   
    15     5     7 1   
    16     5    20 1   
    17     5    21 1   
    18     6     9 1   
    19     6    13 1   
    20     7    12 1   
    21     7    22 1   
    22     7    23 1   
    23     8    24 1   
@<TRIPOS>SUBSTRUCTURE
     1 T7H         1 TEMP              0 ****  ****    0 ROOT
