@<TRIPOS>MOLECULE
T7I
   38    41     1     0     0
SMALL
abcg2


@<TRIPOS>ATOM
      1 CAA        -13.1710    -2.8500    -9.0950 ca         1 T7I      -0.090000
      2 CAB        -13.2110    -3.6110    -7.9310 ca         1 T7I      -0.121000
      3 CAC        -12.0390    -4.1210    -7.3880 ca         1 T7I      -0.071500
      4 CAD        -10.8040    -3.8730    -7.9980 ca         1 T7I      -0.069800
      5 CAE        -10.7750    -3.0990    -9.1640 ca         1 T7I      -0.071500
      6 CAF        -11.9480    -2.5970    -9.7100 ca         1 T7I      -0.121000
      7 CAG         -9.5400    -4.4020    -7.4320 cc         1 T7I       0.286400
      8 CAH         -9.5370    -5.5470    -6.6410 cd         1 T7I      -0.406200
      9 CAI         -8.3510    -6.0620    -6.0630 c          1 T7I       0.537000
     10 CAL         -7.2900    -4.1650    -7.2440 cd         1 T7I       0.081000
     11 CAN         -5.9410    -3.6860    -7.3610 cd         1 T7I      -0.073000
     12 CAO         -5.1870    -4.5430    -6.5890 cc         1 T7I      -0.156300
     13 CAQ         -3.7080    -4.5700    -6.3330 c3         1 T7I       0.377300
     14 CAU         -5.5220    -2.5230    -8.1510 ca         1 T7I      -0.022000
     15 CAV         -4.6510    -1.5630    -7.6290 ca         1 T7I      -0.081000
     16 CAW         -4.2580    -0.4750    -8.4000 ca         1 T7I      -0.111500
     17 CAX         -4.7380    -0.3270    -9.6970 ca         1 T7I      -0.096000
     18 CAY         -5.6170    -1.2710   -10.2200 ca         1 T7I      -0.111500
     19 CAZ         -6.0090    -2.3610    -9.4530 ca         1 T7I      -0.081000
     20 FAR         -3.3430    -3.6770    -5.3900 f          1 T7I      -0.095667
     21 FAS         -3.0110    -4.2860    -7.4420 f          1 T7I      -0.095667
     22 FAT         -3.3190    -5.7830    -5.8990 f          1 T7I      -0.095667
     23 NAK         -7.2440    -5.2600    -6.4190 n          1 T7I      -0.042800
     24 NAM         -8.4200    -3.7120    -7.7460 nc         1 T7I      -0.348600
     25 NAP         -5.9810    -5.4710    -5.9940 na         1 T7I      -0.186000
     26 OAJ         -8.1680    -7.0490    -5.3490 o          1 T7I      -0.556000
     27 HAA        -14.0850    -2.4540    -9.5180 ha         1 T7I       0.115000
     28 HAB        -14.1560    -3.8030    -7.4400 ha         1 T7I       0.116000
     29 HAC        -12.0860    -4.6930    -6.4710 ha         1 T7I       0.124500
     30 HAE         -9.8240    -2.9000    -9.6380 ha         1 T7I       0.124500
     31 HAF        -11.9080    -2.0060   -10.6170 ha         1 T7I       0.116000
     32 HAV         -4.2900    -1.6570    -6.6140 ha         1 T7I       0.120000
     33 HAW         -3.5830     0.2600    -7.9820 ha         1 T7I       0.116500
     34 HAX         -4.4320     0.5210   -10.2960 ha         1 T7I       0.115000
     35 HAY         -5.9960    -1.1620   -11.2280 ha         1 T7I       0.116500
     36 HAZ         -6.6860    -3.0970    -9.8640 ha         1 T7I       0.120000
     37 H1         -10.4460    -6.0950    -6.4490 ha         1 T7I       0.221000
     38 HAP         -5.7430    -6.3520    -5.5590 hn         1 T7I       0.418000
@<TRIPOS>BOND
     1     1     2 ar  
     2     1     6 ar  
     3     1    27 1   
     4     2     3 ar  
     5     2    28 1   
     6     3     4 ar  
     7     3    29 1   
     8     4     5 ar  
     9     4     7 1   
    10     5     6 ar  
    11     5    30 1   
    12     6    31 1   
    13     7     8 2   
    14     7    24 1   
    15     8     9 1   
    16     8    37 1   
    17     9    23 1   
    18     9    26 2   
    19    10    11 1   
    20    10    23 1   
    21    10    24 2   
    22    11    12 2   
    23    11    14 1   
    24    12    13 1   
    25    12    25 1   
    26    13    20 1   
    27    13    21 1   
    28    13    22 1   
    29    14    15 ar  
    30    14    19 ar  
    31    15    16 ar  
    32    15    32 1   
    33    16    17 ar  
    34    16    33 1   
    35    17    18 ar  
    36    17    34 1   
    37    18    19 ar  
    38    18    35 1   
    39    19    36 1   
    40    23    25 1   
    41    25    38 1   
@<TRIPOS>SUBSTRUCTURE
     1 T7I         1 TEMP              0 ****  ****    0 ROOT
