@<TRIPOS>MOLECULE
T7I
   38    41     1     0     0
SMALL
No Charge or Current Charge


@<TRIPOS>ATOM
      1 CAA        -13.2230    -2.9000    -9.1470 ca         1 T7I      -0.090000
      2 CAB        -13.1870    -3.4010    -7.8360 ca         1 T7I      -0.121000
      3 CAC        -11.9850    -3.9020    -7.3040 ca         1 T7I      -0.071500
      4 CAD        -10.8060    -3.9260    -8.0840 ca         1 T7I      -0.069800
      5 CAE        -10.8500    -3.3890    -9.3900 ca         1 T7I      -0.071500
      6 CAF        -12.0530    -2.8890    -9.9210 ca         1 T7I      -0.121000
      7 CAG         -9.5290    -4.4000    -7.5270 cc         1 T7I       0.286400
      8 CAH         -9.5650    -5.4800    -6.6510 cd         1 T7I      -0.406200
      9 CAI         -8.3450    -6.0380    -6.0580 c          1 T7I       0.537000
     10 CAL         -7.2420    -4.3040    -7.3560 cd         1 T7I       0.081000
     11 CAN         -5.9040    -3.8010    -7.4300 cd         1 T7I      -0.073000
     12 CAO         -5.1020    -4.5800    -6.5760 cc         1 T7I      -0.156300
     13 CAQ         -3.6050    -4.5620    -6.3090 c3         1 T7I       0.377300
     14 CAU         -5.5080    -2.5630    -8.1530 ca         1 T7I      -0.022000
     15 CAV         -4.5280    -1.6840    -7.6390 ca         1 T7I      -0.081000
     16 CAW         -4.1680    -0.5150    -8.3320 ca         1 T7I      -0.111500
     17 CAX         -4.7840    -0.2020    -9.5530 ca         1 T7I      -0.096000
     18 CAY         -5.7640    -1.0590   -10.0750 ca         1 T7I      -0.111500
     19 CAZ         -6.1250    -2.2260    -9.3790 ca         1 T7I      -0.081000
     20 FAR         -3.2910    -3.7540    -5.2710 f          1 T7I      -0.095667
     21 FAS         -2.8940    -4.1500    -7.3830 f          1 T7I      -0.095667
     22 FAT         -3.1450    -5.7950    -5.9950 f          1 T7I      -0.095667
     23 NAK         -7.2230    -5.3910    -6.5660 n          1 T7I      -0.042800
     24 NAM         -8.3400    -3.7740    -7.8880 nc         1 T7I      -0.348600
     25 NAP         -5.9420    -5.5570    -6.0030 na         1 T7I      -0.186000
     26 OAJ         -8.3200    -6.9540    -5.2460 o          1 T7I      -0.556000
     27 HAA        -14.1530    -2.5110    -9.5570 ha         1 T7I       0.115000
     28 HAB        -14.0880    -3.3940    -7.2280 ha         1 T7I       0.116000
     29 HAC        -11.9770    -4.2580    -6.2760 ha         1 T7I       0.124500
     30 HAE         -9.9530    -3.3690   -10.0050 ha         1 T7I       0.124500
     31 HAF        -12.0750    -2.4910   -10.9330 ha         1 T7I       0.116000
     32 HAV         -4.0650    -1.8740    -6.6780 ha         1 T7I       0.120000
     33 HAW         -3.4170     0.1520    -7.9170 ha         1 T7I       0.116500
     34 HAX         -4.5050     0.7020   -10.0900 ha         1 T7I       0.115000
     35 HAY         -6.2440    -0.8220   -11.0220 ha         1 T7I       0.116500
     36 HAZ         -6.8680    -2.8840    -9.8200 ha         1 T7I       0.120000
     37 H1         -10.4790    -5.9780    -6.3610 ha         1 T7I       0.221000
     38 HAP         -5.7630    -6.3960    -5.4540 hn         1 T7I       0.418000
@<TRIPOS>BOND
     1     1     2 ar  
     2     1     6 ar  
     3     1    27 1   
     4     2     3 ar  
     5     2    28 1   
     6     3     4 ar  
     7     3    29 1   
     8     4     5 ar  
     9     4     7 1   
    10     5     6 ar  
    11     5    30 1   
    12     6    31 1   
    13     7     8 2   
    14     7    24 1   
    15     8     9 1   
    16     8    37 1   
    17     9    23 1   
    18     9    26 2   
    19    10    11 1   
    20    10    23 1   
    21    10    24 2   
    22    11    12 2   
    23    11    14 1   
    24    12    13 1   
    25    12    25 1   
    26    13    20 1   
    27    13    21 1   
    28    13    22 1   
    29    14    15 ar  
    30    14    19 ar  
    31    15    16 ar  
    32    15    32 1   
    33    16    17 ar  
    34    16    33 1   
    35    17    18 ar  
    36    17    34 1   
    37    18    19 ar  
    38    18    35 1   
    39    19    36 1   
    40    23    25 1   
    41    25    38 1   
@<TRIPOS>SUBSTRUCTURE
     1 T7I         1 TEMP              0 ****  ****    0 ROOT
