@<TRIPOS>MOLECULE
T7J
   33    34     1     0     0
SMALL
No Charge or Current Charge


@<TRIPOS>ATOM
      1 C13          3.0520     0.1750    -1.2000 ce         1 T7J      -0.358100
      2 C17          1.6020     0.4750     0.8820 c5         1 T7J      -0.318400
      3 C01         -5.7470     1.2960     0.4260 c3         1 T7J      -0.050800
      4 C02         -4.3100     0.8160     0.2860 ca         1 T7J      -0.062300
      5 C03         -3.7570    -0.0600     1.2370 ca         1 T7J      -0.106000
      6 C04         -2.4300    -0.5040     1.1050 ca         1 T7J      -0.105000
      7 C05         -1.6180    -0.0410     0.0500 ca         1 T7J      -0.066000
      8 C09         -1.2860    -2.9510    -0.4210 c3         1 T7J      -0.173100
      9 C11          0.8120     0.3430    -0.4520 c5         1 T7J       0.160900
     10 C12          1.7820    -0.1520    -1.5250 c2         1 T7J      -0.082200
     11 C18         -2.1980     0.7860    -0.9330 ca         1 T7J      -0.105000
     12 C19         -3.5250     1.2300    -0.8040 ca         1 T7J      -0.106000
     13 N06         -0.3120    -0.6080    -0.1790 n          1 T7J      -0.245400
     14 O08          1.0360    -2.5120    -0.1550 o          1 T7J      -0.586100
     15 O16          4.3050     0.3060     1.1400 o          1 T7J      -0.516500
     16 S14          3.2720     0.9930     0.3560 sy         1 T7J       1.038100
     17 H131         3.9670    -0.0340    -1.7530 h4         1 T7J       0.241000
     18 H171         1.2030     1.2210     1.5760 h1         1 T7J       0.116700
     19 H172         1.7410    -0.4840     1.3910 h1         1 T7J       0.116700
     20 H013        -5.7930     2.2250     1.0050 hc         1 T7J       0.047367
     21 H012        -6.2020     1.4880    -0.5530 hc         1 T7J       0.047367
     22 H011        -6.3700     0.5510     0.9360 hc         1 T7J       0.047367
     23 H031        -4.3580    -0.4030     2.0770 ha         1 T7J       0.119000
     24 H041        -2.0230    -1.1830     1.8510 ha         1 T7J       0.123000
     25 H091        -1.7810    -3.0980     0.5440 hc         1 T7J       0.066367
     26 H1          -2.0490    -2.4730    -1.0450 hc         1 T7J       0.066367
     27 H092        -0.9830    -3.9270    -0.8160 hc         1 T7J       0.066367
     28 H111         0.4260     1.3280    -0.7490 h1         1 T7J       0.085700
     29 H121         1.4910    -0.6710    -2.4400 ha         1 T7J       0.203000
     30 H181        -1.6230     1.0870    -1.8060 ha         1 T7J       0.123000
     31 H191        -3.9470     1.8870    -1.5620 ha         1 T7J       0.119000
     32 O15          3.2900     2.4440     0.1370 o          1 T7J      -0.516500
     33 C07         -0.0850    -2.0190    -0.2230 c          1 T7J       0.609100
@<TRIPOS>BOND
     1     1    10 2   
     2     1    16 1   
     3     1    17 1   
     4     2     9 1   
     5     2    16 1   
     6     2    18 1   
     7     2    19 1   
     8     3     4 1   
     9     3    20 1   
    10     3    21 1   
    11     3    22 1   
    12     4     5 ar  
    13     4    12 ar  
    14     5     6 ar  
    15     5    23 1   
    16     6     7 ar  
    17     6    24 1   
    18     7    11 ar  
    19     7    13 1   
    20     8    25 1   
    21     8    26 1   
    22     8    27 1   
    23     8    33 1   
    24     9    10 1   
    25     9    13 1   
    26     9    28 1   
    27    10    29 1   
    28    11    12 ar  
    29    11    30 1   
    30    12    31 1   
    31    13    33 1   
    32    14    33 2   
    33    15    16 2   
    34    16    32 2   
@<TRIPOS>SUBSTRUCTURE
     1 T7J         1 TEMP              0 ****  ****    0 ROOT
