@<TRIPOS>MOLECULE
T7J
   33    34     1     0     0
SMALL
abcg2


@<TRIPOS>ATOM
      1 C13          2.9890     0.4430    -1.1330 ce         1 T7J      -0.358100
      2 C17          1.5670     0.2160     1.0380 c5         1 T7J      -0.318400
      3 C01         -5.6540     1.3500     0.4560 c3         1 T7J      -0.050800
      4 C02         -4.2620     0.8330     0.2440 ca         1 T7J      -0.062300
      5 C03         -3.4960     0.3990     1.3250 ca         1 T7J      -0.106000
      6 C04         -2.2140    -0.0910     1.1430 ca         1 T7J      -0.105000
      7 C05         -1.6700    -0.1610    -0.1340 ca         1 T7J      -0.066000
      8 C09         -1.2620    -2.9100    -0.5470 c3         1 T7J      -0.173100
      9 C11          0.7480     0.2990    -0.2570 c5         1 T7J       0.160900
     10 C12          1.7180     0.2030    -1.4070 c2         1 T7J      -0.082200
     11 C18         -2.4140     0.2760    -1.2180 ca         1 T7J      -0.105000
     12 C19         -3.6980     0.7660    -1.0260 ca         1 T7J      -0.106000
     13 N06         -0.3470    -0.6530    -0.3260 n          1 T7J      -0.245400
     14 O08          1.0670    -2.3780    -0.5840 o          1 T7J      -0.586100
     15 O16          4.2340    -0.1850     1.1230 o          1 T7J      -0.516500
     16 S14          3.2440     0.7360     0.5880 sy         1 T7J       1.038100
     17 H131         3.8160     0.5000    -1.8250 h4         1 T7J       0.241000
     18 H171         1.1980     0.8660     1.8290 h1         1 T7J       0.116700
     19 H172         1.6350    -0.8060     1.4040 h1         1 T7J       0.116700
     20 H013        -5.6590     2.2050     1.1320 hc         1 T7J       0.047367
     21 H012        -6.1170     1.6620    -0.4780 hc         1 T7J       0.047367
     22 H011        -6.2920     0.5850     0.9010 hc         1 T7J       0.047367
     23 H031        -3.9060     0.4420     2.3270 ha         1 T7J       0.119000
     24 H041        -1.6410    -0.4310     1.9970 ha         1 T7J       0.123000
     25 H091        -1.8590    -2.8640     0.3630 hc         1 T7J       0.066367
     26 H1          -1.9250    -2.6640    -1.3760 hc         1 T7J       0.066367
     27 H092        -0.9070    -3.9290    -0.6790 hc         1 T7J       0.066367
     28 H111         0.2860     1.2880    -0.3180 h1         1 T7J       0.085700
     29 H121         1.3500     0.0270    -2.4090 ha         1 T7J       0.203000
     30 H181        -1.9970     0.2270    -2.2160 ha         1 T7J       0.123000
     31 H191        -4.2690     1.0980    -1.8850 ha         1 T7J       0.119000
     32 O15          3.3990     2.1630     0.8170 o          1 T7J      -0.516500
     33 C07         -0.0810    -1.9800    -0.4880 c          1 T7J       0.609100
@<TRIPOS>BOND
     1     1    10 2   
     2     1    16 1   
     3     1    17 1   
     4     2     9 1   
     5     2    16 1   
     6     2    18 1   
     7     2    19 1   
     8     3     4 1   
     9     3    20 1   
    10     3    21 1   
    11     3    22 1   
    12     4     5 ar  
    13     4    12 ar  
    14     5     6 ar  
    15     5    23 1   
    16     6     7 ar  
    17     6    24 1   
    18     7    11 ar  
    19     7    13 1   
    20     8    25 1   
    21     8    26 1   
    22     8    27 1   
    23     8    33 1   
    24     9    10 1   
    25     9    13 1   
    26     9    28 1   
    27    10    29 1   
    28    11    12 ar  
    29    11    30 1   
    30    12    31 1   
    31    13    33 1   
    32    14    33 2   
    33    15    16 2   
    34    16    32 2   
@<TRIPOS>SUBSTRUCTURE
     1 T7J         1 TEMP              0 ****  ****    0 ROOT
