@<TRIPOS>MOLECULE
T7L
   20    21     1     0     0
SMALL
No Charge or Current Charge


@<TRIPOS>ATOM
      1 C4         -11.4420    -4.6120   -17.6730 ca         1 T7L      -0.082500
      2 C5         -11.2350    -3.2190   -17.5250 ca         1 T7L      -0.099500
      3 C6         -10.1950    -2.7270   -16.7170 ca         1 T7L      -0.120000
      4 C7          -9.3450    -3.6160   -16.0440 ca         1 T7L      -0.130000
      5 C8          -9.5360    -4.9990   -16.1790 ca         1 T7L      -0.120000
      6 N          -13.3710    -4.3180   -19.1840 nc         1 T7L      -0.659000
      7 O          -14.8920    -8.5550   -20.3320 o          1 T7L      -0.704500
      8 C1         -14.1760    -6.4110   -19.7930 cd         1 T7L      -0.208600
      9 C2         -14.2900    -5.0490   -19.8960 cc         1 T7L       0.236900
     10 C3         -12.5420    -5.1270   -18.5290 cd         1 T7L       0.394900
     11 C9         -10.5750    -5.4950   -16.9860 ca         1 T7L      -0.099500
     12 O1         -15.9680    -6.9060   -21.1890 o          1 T7L      -0.704500
     13 S          -12.8390    -6.8550   -18.7430 ss         1 T7L      -0.027400
     14 H1         -11.8800    -2.5080   -18.0370 ha         1 T7L       0.126000
     15 H2         -10.0490    -1.6540   -16.6140 ha         1 T7L       0.100500
     16 H3          -8.5400    -3.2350   -15.4190 ha         1 T7L       0.097000
     17 H4          -8.8770    -5.6910   -15.6580 ha         1 T7L       0.100500
     18 H6         -15.0270    -4.5100   -20.4770 h4         1 T7L       0.045100
     19 H7         -10.6940    -6.5720   -17.0690 ha         1 T7L       0.126000
     20 C          -15.0750    -7.3570   -20.4870 c          1 T7L       0.729600
@<TRIPOS>BOND
     1     1     2 ar  
     2     1    10 1   
     3     1    11 ar  
     4     2     3 ar  
     5     2    14 1   
     6     3     4 ar  
     7     3    15 1   
     8     4     5 ar  
     9     4    16 1   
    10     5    11 ar  
    11     5    17 1   
    12     6     9 1   
    13     6    10 2   
    14     7    20 1   
    15     8     9 2   
    16     8    13 1   
    17     8    20 1   
    18     9    18 1   
    19    10    13 1   
    20    11    19 1   
    21    12    20 1   
@<TRIPOS>SUBSTRUCTURE
     1 T7L         1 TEMP              0 ****  ****    0 ROOT
