@<TRIPOS>MOLECULE
T7L
   20    21     1     0     0
SMALL
abcg2


@<TRIPOS>ATOM
      1 C4         -11.4420    -4.5950   -17.6740 ca         1 T7L      -0.082500
      2 C5         -11.1970    -3.2200   -17.5580 ca         1 T7L      -0.099500
      3 C6         -10.1630    -2.7550   -16.7580 ca         1 T7L      -0.120000
      4 C7          -9.3550    -3.6500   -16.0600 ca         1 T7L      -0.130000
      5 C8          -9.5910    -5.0170   -16.1710 ca         1 T7L      -0.120000
      6 N          -13.4170    -4.2790   -19.0970 nc         1 T7L      -0.659000
      7 O          -14.6430    -8.5970   -20.3350 o          1 T7L      -0.704500
      8 C1         -14.1840    -6.3490   -19.8210 cd         1 T7L      -0.208600
      9 C2         -14.3310    -4.9900   -19.8220 cc         1 T7L       0.236900
     10 C3         -12.5420    -5.0690   -18.5180 cd         1 T7L       0.394900
     11 C9         -10.6240    -5.4860   -16.9690 ca         1 T7L      -0.099500
     12 O1         -15.9940    -7.0010   -21.1710 o          1 T7L      -0.704500
     13 S          -12.8110    -6.7570   -18.8540 ss         1 T7L      -0.027400
     14 H1         -11.8210    -2.5260   -18.1020 ha         1 T7L       0.126000
     15 H2          -9.9850    -1.6900   -16.6800 ha         1 T7L       0.100500
     16 H3          -8.5500    -3.2850   -15.4360 ha         1 T7L       0.097000
     17 H4          -8.9700    -5.7210   -15.6310 ha         1 T7L       0.100500
     18 H6         -15.1160    -4.4690   -20.3520 h4         1 T7L       0.045100
     19 H7         -10.7990    -6.5530   -17.0370 ha         1 T7L       0.126000
     20 C          -15.0130    -7.4070   -20.5030 c          1 T7L       0.729600
@<TRIPOS>BOND
     1     1     2 ar  
     2     1    10 1   
     3     1    11 ar  
     4     2     3 ar  
     5     2    14 1   
     6     3     4 ar  
     7     3    15 1   
     8     4     5 ar  
     9     4    16 1   
    10     5    11 ar  
    11     5    17 1   
    12     6     9 1   
    13     6    10 2   
    14     7    20 1   
    15     8     9 2   
    16     8    13 1   
    17     8    20 1   
    18     9    18 1   
    19    10    13 1   
    20    11    19 1   
    21    12    20 1   
@<TRIPOS>SUBSTRUCTURE
     1 T7L         1 TEMP              0 ****  ****    0 ROOT
