@<TRIPOS>MOLECULE
T7O
   33    34     1     0     0
SMALL
abcg2


@<TRIPOS>ATOM
      1 C            5.8410    -1.4550    -1.2730 c3         1 T7O      -0.157100
      2 O            5.9190    -0.7770     1.0280 o          1 T7O      -0.505000
      3 C1           5.3370    -0.7870    -0.0290 c          1 T7O       0.592100
      4 C10         -1.2270    -1.5960    -0.3300 ca         1 T7O      -0.121000
      5 C11         -2.3520    -2.4070    -0.3380 ca         1 T7O      -0.151000
      6 C12         -3.6010    -1.8740    -0.0520 ca         1 T7O      -0.073000
      7 C13         -2.6030     0.2810     0.2500 ca         1 T7O      -0.067000
      8 C14         -3.7390    -0.5210     0.2450 ca         1 T7O      -0.140600
      9 C15         -5.1080     0.0720     0.5650 c          1 T7O       0.713600
     10 C2           3.5270     0.4020     0.9240 c3         1 T7O       0.216900
     11 C3           2.2170     0.9560     0.4560 ca         1 T7O      -0.112300
     12 C4           1.0850     0.1500     0.4340 ca         1 T7O      -0.088000
     13 C5          -0.1430     0.6320    -0.0160 cp         1 T7O       0.005000
     14 C6          -0.2140     1.9590    -0.4480 ca         1 T7O      -0.090000
     15 C7           0.9090     2.7720    -0.4260 ca         1 T7O      -0.122000
     16 C8           2.1240     2.2740     0.0230 ca         1 T7O      -0.107000
     17 C9          -1.3380    -0.2370    -0.0320 cp         1 T7O      -0.094000
     18 O1           4.1470    -0.2240    -0.2110 os         1 T7O      -0.439100
     19 O2          -6.0690    -0.7190     0.5580 o          1 T7O      -0.719000
     20 O3          -5.1450     1.2940     0.8050 o          1 T7O      -0.719000
     21 H2           5.5630    -2.5100    -1.2440 hc         1 T7O       0.065700
     22 H1           5.4210    -1.0230    -2.1780 hc         1 T7O       0.065700
     23 H            6.9270    -1.4010    -1.3120 hc         1 T7O       0.065700
     24 H9          -0.2620    -2.0220    -0.5770 ha         1 T7O       0.086000
     25 H10         -2.2520    -3.4580    -0.5760 ha         1 T7O       0.087000
     26 H11         -4.4750    -2.5120    -0.0600 ha         1 T7O       0.128000
     27 H12         -2.7110     1.3290     0.4990 ha         1 T7O       0.130000
     28 H4           4.1710     1.1950     1.3090 h1         1 T7O       0.050200
     29 H3           3.3830    -0.3350     1.7170 h1         1 T7O       0.050200
     30 H5           1.1600    -0.8680     0.8000 ha         1 T7O       0.114000
     31 H6          -1.1500     2.3570    -0.8190 ha         1 T7O       0.129000
     32 H7           0.8360     3.7970    -0.7660 ha         1 T7O       0.105000
     33 H8           2.9980     2.9130     0.0400 ha         1 T7O       0.100000
@<TRIPOS>BOND
     1     1     3 1   
     2     1    21 1   
     3     1    22 1   
     4     1    23 1   
     5     2     3 2   
     6     3    18 1   
     7     4     5 ar  
     8     4    17 ar  
     9     4    24 1   
    10     5     6 ar  
    11     5    25 1   
    12     6     8 ar  
    13     6    26 1   
    14     7     8 ar  
    15     7    17 ar  
    16     7    27 1   
    17     8     9 1   
    18     9    19 1   
    19     9    20 1   
    20    10    11 1   
    21    10    18 1   
    22    10    28 1   
    23    10    29 1   
    24    11    12 ar  
    25    11    16 ar  
    26    12    13 ar  
    27    12    30 1   
    28    13    14 ar  
    29    13    17 1   
    30    14    15 ar  
    31    14    31 1   
    32    15    16 ar  
    33    15    32 1   
    34    16    33 1   
@<TRIPOS>SUBSTRUCTURE
     1 T7O         1 TEMP              0 ****  ****    0 ROOT
