@<TRIPOS>MOLECULE
T7O
   33    34     1     0     0
SMALL
No Charge or Current Charge


@<TRIPOS>ATOM
      1 C            5.9300    -1.5360    -1.2340 c3         1 T7O      -0.157100
      2 O            6.0290    -0.7900     1.0720 o          1 T7O      -0.505000
      3 C1           5.4170    -0.8290     0.0130 c          1 T7O       0.592100
      4 C10         -1.2510    -1.6100    -0.3530 ca         1 T7O      -0.121000
      5 C11         -2.3810    -2.4420    -0.3630 ca         1 T7O      -0.151000
      6 C12         -3.6460    -1.9200    -0.0530 ca         1 T7O      -0.073000
      7 C13         -2.6500     0.2730     0.2760 ca         1 T7O      -0.067000
      8 C14         -3.8000    -0.5530     0.2720 ca         1 T7O      -0.140600
      9 C15         -5.1680     0.0160     0.6120 c          1 T7O       0.713600
     10 C2           3.5850     0.4540     0.8910 c3         1 T7O       0.216900
     11 C3           2.2450     1.0020     0.4180 ca         1 T7O      -0.112300
     12 C4           1.1060     0.1730     0.4060 ca         1 T7O      -0.088000
     13 C5          -0.1560     0.6550    -0.0250 cp         1 T7O       0.005000
     14 C6          -0.2380     2.0060    -0.4470 ca         1 T7O      -0.090000
     15 C7           0.8940     2.8380    -0.4400 ca         1 T7O      -0.122000
     16 C8           2.1330     2.3380    -0.0090 ca         1 T7O      -0.107000
     17 C9          -1.3620    -0.2350    -0.0340 cp         1 T7O      -0.094000
     18 O1           4.1960    -0.2510    -0.2020 os         1 T7O      -0.439100
     19 O2          -6.1320    -0.7370     0.6110 o          1 T7O      -0.719000
     20 O3          -5.2600     1.2070     0.8750 o          1 T7O      -0.719000
     21 H2           5.1770    -2.2590    -1.5660 hc         1 T7O       0.065700
     22 H1           5.9460    -0.8220    -2.0640 hc         1 T7O       0.065700
     23 H            6.9080    -2.0060    -1.0810 hc         1 T7O       0.065700
     24 H9          -0.2840    -2.0340    -0.6090 ha         1 T7O       0.086000
     25 H10         -2.2760    -3.4940    -0.6140 ha         1 T7O       0.087000
     26 H11         -4.5090    -2.5830    -0.0660 ha         1 T7O       0.128000
     27 H12         -2.7520     1.3230     0.5390 ha         1 T7O       0.130000
     28 H4           4.2250     1.2810     1.2270 h1         1 T7O       0.050200
     29 H3           3.4240    -0.2180     1.7450 h1         1 T7O       0.050200
     30 H5           1.1990    -0.8560     0.7450 ha         1 T7O       0.114000
     31 H6          -1.1850     2.4090    -0.7980 ha         1 T7O       0.129000
     32 H7           0.8110     3.8700    -0.7720 ha         1 T7O       0.105000
     33 H8           3.0050     2.9880    -0.0080 ha         1 T7O       0.100000
@<TRIPOS>BOND
     1     1     3 1   
     2     1    21 1   
     3     1    22 1   
     4     1    23 1   
     5     2     3 2   
     6     3    18 1   
     7     4     5 ar  
     8     4    17 ar  
     9     4    24 1   
    10     5     6 ar  
    11     5    25 1   
    12     6     8 ar  
    13     6    26 1   
    14     7     8 ar  
    15     7    17 ar  
    16     7    27 1   
    17     8     9 1   
    18     9    19 1   
    19     9    20 1   
    20    10    11 1   
    21    10    18 1   
    22    10    28 1   
    23    10    29 1   
    24    11    12 ar  
    25    11    16 ar  
    26    12    13 ar  
    27    12    30 1   
    28    13    14 ar  
    29    13    17 1   
    30    14    15 ar  
    31    14    31 1   
    32    15    16 ar  
    33    15    32 1   
    34    16    33 1   
@<TRIPOS>SUBSTRUCTURE
     1 T7O         1 TEMP              0 ****  ****    0 ROOT
