@<TRIPOS>MOLECULE
T7P
   30    31     1     0     0
SMALL
No Charge or Current Charge


@<TRIPOS>ATOM
      1 C13          0.8390    -0.0890     0.6410 c5         1 T7P       0.156900
      2 C15          3.0600     0.3740     1.3170 ce         1 T7P      -0.359100
      3 C02          0.0160     1.9200    -0.6710 c          1 T7P       0.609100
      4 C03         -1.1650     2.8510    -0.9700 c3         1 T7P      -0.173100
      5 C06         -1.5620     0.0480    -0.0800 ca         1 T7P      -0.078000
      6 C07         -2.3220    -0.0160    -1.2680 ca         1 T7P      -0.082500
      7 C08         -3.6560    -0.4610    -1.2390 ca         1 T7P      -0.146000
      8 C09         -4.2530    -0.7980    -0.0160 ca         1 T7P       0.182000
      9 C11         -3.5310    -0.6760     1.1790 ca         1 T7P      -0.146000
     10 C12         -2.1970    -0.2330     1.1490 ca         1 T7P      -0.082500
     11 C14          1.7900     0.8270     1.4090 c2         1 T7P      -0.079200
     12 C19          1.6650    -0.8230    -0.4560 c5         1 T7P      -0.324400
     13 F10         -5.5370    -1.2190     0.0130 f          1 T7P      -0.170000
     14 N05         -0.2490     0.6450    -0.0790 n          1 T7P      -0.244400
     15 O01          1.1510     2.3180    -0.9060 o          1 T7P      -0.581100
     16 O18          4.3770    -0.8190    -0.6570 o          1 T7P      -0.512500
     17 S16          3.3030    -1.0640     0.3130 sy         1 T7P       1.027100
     18 H131         0.4170    -0.8280     1.3370 h1         1 T7P       0.086700
     19 H151         3.9630     0.8020     1.7510 h4         1 T7P       0.245000
     20 H031        -1.9610     2.7160    -0.2290 hc         1 T7P       0.067033
     21 H1          -0.8490     3.8960    -1.0510 hc         1 T7P       0.067033
     22 H032        -1.6240     2.5450    -1.9150 hc         1 T7P       0.067033
     23 H071        -1.8700     0.2440    -2.2230 ha         1 T7P       0.128500
     24 H081        -4.2280    -0.5370    -2.1600 ha         1 T7P       0.140500
     25 H111        -4.0090    -0.9100     2.1260 ha         1 T7P       0.140500
     26 H121        -1.6600    -0.1040     2.0870 ha         1 T7P       0.128500
     27 H141         1.4860     1.7090     1.9770 ha         1 T7P       0.206000
     28 H191         1.2660    -1.7980    -0.7510 h1         1 T7P       0.118700
     29 H192         1.8450    -0.2020    -1.3390 h1         1 T7P       0.118700
     30 O17          3.2740    -2.2570     1.1670 o          1 T7P      -0.512500
@<TRIPOS>BOND
     1     1    11 1   
     2     1    12 1   
     3     1    14 1   
     4     1    18 1   
     5     2    11 2   
     6     2    17 1   
     7     2    19 1   
     8     3     4 1   
     9     3    14 1   
    10     3    15 2   
    11     4    20 1   
    12     4    21 1   
    13     4    22 1   
    14     5     6 ar  
    15     5    10 ar  
    16     5    14 1   
    17     6     7 ar  
    18     6    23 1   
    19     7     8 ar  
    20     7    24 1   
    21     8     9 ar  
    22     8    13 1   
    23     9    10 ar  
    24     9    25 1   
    25    10    26 1   
    26    11    27 1   
    27    12    17 1   
    28    12    28 1   
    29    12    29 1   
    30    16    17 2   
    31    17    30 2   
@<TRIPOS>SUBSTRUCTURE
     1 T7P         1 TEMP              0 ****  ****    0 ROOT
