@<TRIPOS>MOLECULE
T7P
   30    31     1     0     0
SMALL
abcg2


@<TRIPOS>ATOM
      1 C13          0.7880    -0.0820     0.5020 c5         1 T7P       0.156900
      2 C15          3.0320     0.1740     1.3440 ce         1 T7P      -0.359100
      3 C02         -0.0010     2.0240    -0.4290 c          1 T7P       0.609100
      4 C03         -1.1630     2.8620    -0.8910 c3         1 T7P      -0.173100
      5 C06         -1.6030     0.2370     0.0370 ca         1 T7P      -0.078000
      6 C07         -2.1000    -0.3230    -1.1330 ca         1 T7P      -0.082500
      7 C08         -3.3730    -0.8730    -1.1620 ca         1 T7P      -0.146000
      8 C09         -4.1240    -0.8580    -0.0020 ca         1 T7P       0.182000
      9 C11         -3.6490    -0.3160     1.1780 ca         1 T7P      -0.146000
     10 C12         -2.3780     0.2350     1.1900 ca         1 T7P      -0.082500
     11 C14          1.7720     0.5700     1.4390 c2         1 T7P      -0.079200
     12 C19          1.5990    -0.6830    -0.6540 c5         1 T7P      -0.324400
     13 F10         -5.3550    -1.3850    -0.0210 f          1 T7P      -0.170000
     14 N05         -0.2900     0.7860     0.0670 n          1 T7P      -0.244400
     15 O01          1.1520     2.4130    -0.4860 o          1 T7P      -0.581100
     16 O18          4.2880    -0.5650    -0.8890 o          1 T7P      -0.512500
     17 S16          3.2380    -0.9820     0.0350 sy         1 T7P       1.027100
     18 H131         0.3150    -0.8920     1.0630 h1         1 T7P       0.086700
     19 H151         3.8690     0.4450     1.9710 h4         1 T7P       0.245000
     20 H031        -1.9750     2.8810    -0.1650 hc         1 T7P       0.067033
     21 H1          -0.8190     3.8790    -1.0670 hc         1 T7P       0.067033
     22 H032        -1.5720     2.4740    -1.8240 hc         1 T7P       0.067033
     23 H071        -1.4960    -0.3260    -2.0310 ha         1 T7P       0.128500
     24 H081        -3.7700    -1.3060    -2.0700 ha         1 T7P       0.140500
     25 H111        -4.2620    -0.3210     2.0700 ha         1 T7P       0.140500
     26 H121        -1.9890     0.6690     2.1020 ha         1 T7P       0.128500
     27 H141         1.4220     1.2490     2.2060 ha         1 T7P       0.206000
     28 H191         1.1960    -1.6190    -1.0350 h1         1 T7P       0.118700
     29 H192         1.7150     0.0320    -1.4660 h1         1 T7P       0.118700
     30 O17          3.3140    -2.3370     0.5780 o          1 T7P      -0.512500
@<TRIPOS>BOND
     1     1    11 1   
     2     1    12 1   
     3     1    14 1   
     4     1    18 1   
     5     2    11 2   
     6     2    17 1   
     7     2    19 1   
     8     3     4 1   
     9     3    14 1   
    10     3    15 2   
    11     4    20 1   
    12     4    21 1   
    13     4    22 1   
    14     5     6 ar  
    15     5    10 ar  
    16     5    14 1   
    17     6     7 ar  
    18     6    23 1   
    19     7     8 ar  
    20     7    24 1   
    21     8     9 ar  
    22     8    13 1   
    23     9    10 ar  
    24     9    25 1   
    25    10    26 1   
    26    11    27 1   
    27    12    17 1   
    28    12    28 1   
    29    12    29 1   
    30    16    17 2   
    31    17    30 2   
@<TRIPOS>SUBSTRUCTURE
     1 T7P         1 TEMP              0 ****  ****    0 ROOT
