@<TRIPOS>MOLECULE
T7Q
   35    37     1     0     0
SMALL
abcg2


@<TRIPOS>ATOM
      1 C10         22.5220    44.8400   -11.9270 ca         1 T7Q       0.350000
      2 C11         22.8440    44.5570   -13.2630 ca         1 T7Q      -0.213600
      3 C12         23.6380    43.4400   -13.5510 ca         1 T7Q       0.029000
      4 C13         24.1140    42.6100   -12.5580 ca         1 T7Q      -0.168300
      5 C14         23.7680    42.9080   -11.2290 ca         1 T7Q      -0.071000
      6 C15         22.9910    43.9960   -10.9100 ca         1 T7Q      -0.192000
      7 CB          24.9920    41.4290   -12.8750 c3         1 T7Q      -0.026100
      8 CA          26.4630    41.7880   -13.0900 c3         1 T7Q      -0.061700
      9 C           26.6700    42.7520   -14.2870 c          1 T7Q       0.721000
     10 C02         22.3580    45.4200   -14.3440 c          1 T7Q       0.600300
     11 C03         21.5560    46.5690   -13.9220 ca         1 T7Q      -0.216600
     12 C04         21.0560    47.4740   -14.8690 ca         1 T7Q      -0.014000
     13 C05         20.3020    48.5580   -14.4870 ca         1 T7Q      -0.162000
     14 C06         20.0290    48.7610   -13.1270 ca         1 T7Q      -0.044000
     15 C07         20.5050    47.8920   -12.1750 ca         1 T7Q      -0.187000
     16 C08         21.2770    46.7860   -12.5630 ca         1 T7Q       0.339000
     17 N09         21.7550    45.9240   -11.6220 na         1 T7Q      -0.783000
     18 N           27.0300    42.4130   -11.8600 nz         1 T7Q      -0.945000
     19 O01         22.6100    45.1950   -15.5220 o          1 T7Q      -0.526100
     20 O           26.3600    42.2780   -15.3890 o          1 T7Q      -0.661000
     21 OXT         27.0990    43.8840   -14.0090 o          1 T7Q      -0.661000
     22 H121        23.8750    43.2310   -14.5860 ha         1 T7Q       0.170000
     23 H141        24.1140    42.2620   -10.4310 ha         1 T7Q       0.093000
     24 H151        22.7380    44.2040    -9.8780 ha         1 T7Q       0.114000
     25 HB3         24.6570    40.9390   -13.7890 hc         1 T7Q       0.067700
     26 HB2         24.9150    40.6840   -12.0790 hc         1 T7Q       0.067700
     27 HA          27.0290    40.8700   -13.2490 hx         1 T7Q       0.080700
     28 H041        21.2740    47.3060   -15.9150 ha         1 T7Q       0.140000
     29 H051        19.9230    49.2500   -15.2260 ha         1 T7Q       0.122000
     30 H061        19.4370    49.6130   -12.8190 ha         1 T7Q       0.114000
     31 H071        20.2910    48.0530   -11.1250 ha         1 T7Q       0.113000
     32 H091        21.5380    46.1010   -10.6520 hn         1 T7Q       0.343000
     33 H           26.8140    41.8880   -11.0110 hn         1 T7Q       0.489667
     34 HN2         28.0450    42.4830   -11.9190 hn         1 T7Q       0.489667
     35 HN3         26.6890    43.3700   -11.7490 hn         1 T7Q       0.489667
@<TRIPOS>BOND
     1     1     2 ar  
     2     1     6 ar  
     3     1    17 1   
     4     2     3 ar  
     5     2    10 1   
     6     3     4 ar  
     7     3    22 1   
     8     4     5 ar  
     9     4     7 1   
    10     5     6 ar  
    11     5    23 1   
    12     6    24 1   
    13     7     8 1   
    14     7    25 1   
    15     7    26 1   
    16     8     9 1   
    17     8    18 1   
    18     8    27 1   
    19     9    20 1   
    20     9    21 1   
    21    10    11 1   
    22    10    19 2   
    23    11    12 ar  
    24    11    16 ar  
    25    12    13 ar  
    26    12    28 1   
    27    13    14 ar  
    28    13    29 1   
    29    14    15 ar  
    30    14    30 1   
    31    15    16 ar  
    32    15    31 1   
    33    16    17 1   
    34    17    32 1   
    35    18    33 1   
    36    18    34 1   
    37    18    35 1   
@<TRIPOS>SUBSTRUCTURE
     1 T7Q         1 TEMP              0 ****  ****    0 ROOT
