@<TRIPOS>MOLECULE
T7Q
   35    37     1     0     0
SMALL
No Charge or Current Charge


@<TRIPOS>ATOM
      1 C10         22.5300    44.8520   -11.9580 ca         1 T7Q       0.350000
      2 C11         22.8550    44.5720   -13.2900 ca         1 T7Q      -0.213600
      3 C12         23.6520    43.4510   -13.6010 ca         1 T7Q       0.029000
      4 C13         24.1260    42.6090   -12.5750 ca         1 T7Q      -0.168300
      5 C14         23.7910    42.8930   -11.2390 ca         1 T7Q      -0.071000
      6 C15         22.9980    44.0120   -10.9370 ca         1 T7Q      -0.192000
      7 CB          24.9920    41.3970   -12.9100 c3         1 T7Q      -0.026100
      8 CA          26.4950    41.7420   -13.0420 c3         1 T7Q      -0.061700
      9 C           26.7940    42.4930   -14.3880 c          1 T7Q       0.721000
     10 C02         22.3480    45.4720   -14.3610 c          1 T7Q       0.600300
     11 C03         21.5210    46.6340   -13.9300 ca         1 T7Q      -0.216600
     12 C04         20.9990    47.5480   -14.8710 ca         1 T7Q      -0.014000
     13 C05         20.2220    48.6360   -14.4380 ca         1 T7Q      -0.162000
     14 C06         19.9630    48.8150   -13.0700 ca         1 T7Q      -0.044000
     15 C07         20.4840    47.9020   -12.1380 ca         1 T7Q      -0.187000
     16 C08         21.2620    46.8140   -12.5640 ca         1 T7Q       0.339000
     17 N09         21.7510    45.9420   -11.6030 na         1 T7Q      -0.783000
     18 N           26.9980    42.4810   -11.7940 nz         1 T7Q      -0.945000
     19 O01         22.5980    45.2660   -15.5430 o          1 T7Q      -0.526100
     20 O           26.9360    41.8160   -15.3950 o          1 T7Q      -0.661000
     21 OXT         27.0110    43.6960   -14.3380 o          1 T7Q      -0.661000
     22 H121        23.9060    43.2320   -14.6380 ha         1 T7Q       0.170000
     23 H141        24.1430    42.2500   -10.4350 ha         1 T7Q       0.093000
     24 H151        22.7450    44.2250    -9.9020 ha         1 T7Q       0.114000
     25 HB3         24.6470    40.9220   -13.8370 hc         1 T7Q       0.067700
     26 HB2         24.8800    40.6330   -12.1300 hc         1 T7Q       0.067700
     27 HA          27.0480    40.8020   -13.1150 hx         1 T7Q       0.080700
     28 H041        21.1930    47.4210   -15.9350 ha         1 T7Q       0.140000
     29 H051        19.8210    49.3400   -15.1630 ha         1 T7Q       0.122000
     30 H061        19.3610    49.6560   -12.7330 ha         1 T7Q       0.114000
     31 H071        20.2820    48.0420   -11.0800 ha         1 T7Q       0.113000
     32 H091        21.5370    46.1050   -10.6270 hn         1 T7Q       0.343000
     33 H           26.8690    41.9560   -10.9160 hn         1 T7Q       0.489667
     34 HN2         28.0010    42.7160   -11.8450 hn         1 T7Q       0.489667
     35 HN3         26.5180    43.3850   -11.6650 hn         1 T7Q       0.489667
@<TRIPOS>BOND
     1     1     2 ar  
     2     1     6 ar  
     3     1    17 1   
     4     2     3 ar  
     5     2    10 1   
     6     3     4 ar  
     7     3    22 1   
     8     4     5 ar  
     9     4     7 1   
    10     5     6 ar  
    11     5    23 1   
    12     6    24 1   
    13     7     8 1   
    14     7    25 1   
    15     7    26 1   
    16     8     9 1   
    17     8    18 1   
    18     8    27 1   
    19     9    20 1   
    20     9    21 1   
    21    10    11 1   
    22    10    19 2   
    23    11    12 ar  
    24    11    16 ar  
    25    12    13 ar  
    26    12    28 1   
    27    13    14 ar  
    28    13    29 1   
    29    14    15 ar  
    30    14    30 1   
    31    15    16 ar  
    32    15    31 1   
    33    16    17 1   
    34    17    32 1   
    35    18    33 1   
    36    18    34 1   
    37    18    35 1   
@<TRIPOS>SUBSTRUCTURE
     1 T7Q         1 TEMP              0 ****  ****    0 ROOT
