@<TRIPOS>MOLECULE
T7S
   39    40     1     0     0
SMALL
No Charge or Current Charge


@<TRIPOS>ATOM
      1 N1          -2.4010    -0.5510    -0.3950 n          1 T7S      -0.411800
      2 C4           0.1780    -0.5000    -0.4060 c6         1 T7S      -0.135700
      3 C5           0.6750     0.7980     0.2940 c6         1 T7S      -0.090400
      4 C6           2.0060     1.2860    -0.3270 c6         1 T7S       0.097000
      5 C7          -1.1770    -1.0040     0.1630 c          1 T7S       0.609100
      6 C8          -3.7080    -1.1150     0.0440 c6         1 T7S       0.097000
      7 C10         -4.6670     1.2410     0.1880 c6         1 T7S      -0.074400
      8 N            3.0230     0.1980    -0.3110 n          1 T7S      -0.410800
      9 C            4.5440     1.4620     1.2880 c3         1 T7S      -0.175100
     10 O            4.8790    -0.8020     0.6080 o          1 T7S      -0.612100
     11 C1           4.1700     0.1930     0.5190 c          1 T7S       0.610100
     12 C11         -3.3060     1.7820    -0.3130 c6         1 T7S      -0.096900
     13 C12         -2.5600     0.7210    -1.1580 c6         1 T7S       0.097000
     14 C2           2.5930    -1.0050    -1.0720 c6         1 T7S       0.097000
     15 C3           1.2870    -1.5880    -0.4820 c6         1 T7S      -0.090400
     16 C9          -4.4810    -0.1060     0.9270 c6         1 T7S      -0.096900
     17 O1          -1.1790    -1.8020     1.0920 o          1 T7S      -0.604100
     18 H6          -0.0260    -0.1960    -1.4400 hc         1 T7S       0.054700
     19 H7          -0.0790     1.5940     0.2260 hc         1 T7S       0.061950
     20 H8           0.8250     0.6040     1.3650 hc         1 T7S       0.061950
     21 H9           1.8290     1.5870    -1.3700 h1         1 T7S       0.054450
     22 H10          2.3490     2.1830     0.2040 h1         1 T7S       0.054450
     23 H12         -4.3080    -1.3520    -0.8460 h1         1 T7S       0.053700
     24 H11         -3.5680    -2.0560     0.5930 h1         1 T7S       0.053700
     25 H15         -5.1420     1.9740     0.8540 hc         1 T7S       0.042700
     26 H16         -5.3460     1.1040    -0.6650 hc         1 T7S       0.042700
     27 H            3.7200     1.7330     1.9570 hc         1 T7S       0.059367
     28 H21          5.4820     1.3530     1.8450 hc         1 T7S       0.059367
     29 H1           4.5870     2.3080     0.5940 hc         1 T7S       0.059367
     30 H18         -3.4590     2.6930    -0.9080 hc         1 T7S       0.048950
     31 H17         -2.6830     2.0700     0.5450 hc         1 T7S       0.048950
     32 H20         -1.6010     1.1400    -1.4810 h1         1 T7S       0.053700
     33 H19         -3.1380     0.5140    -2.0710 h1         1 T7S       0.053700
     34 H2           2.4250    -0.7220    -2.1220 h1         1 T7S       0.054450
     35 H3           3.3750    -1.7770    -1.0700 h1         1 T7S       0.054450
     36 H4           1.4930    -1.9850     0.5220 hc         1 T7S       0.061950
     37 H5           0.9480    -2.4360    -1.0920 hc         1 T7S       0.061950
     38 H14         -5.4590    -0.5230     1.2020 hc         1 T7S       0.048950
     39 H13         -3.9310     0.0560     1.8640 hc         1 T7S       0.048950
@<TRIPOS>BOND
     1     1     5 1   
     2     1     6 1   
     3     1    13 1   
     4     2     3 1   
     5     2     5 1   
     6     2    15 1   
     7     2    18 1   
     8     3     4 1   
     9     3    19 1   
    10     3    20 1   
    11     4     8 1   
    12     4    21 1   
    13     4    22 1   
    14     5    17 2   
    15     6    16 1   
    16     6    23 1   
    17     6    24 1   
    18     7    12 1   
    19     7    16 1   
    20     7    25 1   
    21     7    26 1   
    22     8    11 1   
    23     8    14 1   
    24     9    11 1   
    25     9    27 1   
    26     9    28 1   
    27     9    29 1   
    28    10    11 2   
    29    12    13 1   
    30    12    30 1   
    31    12    31 1   
    32    13    32 1   
    33    13    33 1   
    34    14    15 1   
    35    14    34 1   
    36    14    35 1   
    37    15    36 1   
    38    15    37 1   
    39    16    38 1   
    40    16    39 1   
@<TRIPOS>SUBSTRUCTURE
     1 T7S         1 TEMP              0 ****  ****    0 ROOT
