@<TRIPOS>MOLECULE
T7S
   39    40     1     0     0
SMALL
abcg2


@<TRIPOS>ATOM
      1 N1          -2.3380    -0.5400    -0.3100 n          1 T7S      -0.411800
      2 C4           0.1200    -0.4750    -0.5180 c6         1 T7S      -0.135700
      3 C5           0.5750     0.7520     0.2850 c6         1 T7S      -0.090400
      4 C6           1.8870     1.2970    -0.2630 c6         1 T7S       0.097000
      5 C7          -1.1530    -1.0640     0.0710 c          1 T7S       0.609100
      6 C8          -3.5860    -1.0710     0.2220 c6         1 T7S       0.097000
      7 C10         -4.5680     1.2370     0.1840 c6         1 T7S      -0.074400
      8 N            2.9110     0.2680    -0.2860 n          1 T7S      -0.410800
      9 C            4.4160     1.4010     1.3270 c3         1 T7S      -0.175100
     10 O            4.8200    -0.7200     0.3890 o          1 T7S      -0.612100
     11 C1           4.0510     0.2360     0.4370 c          1 T7S       0.610100
     12 C11         -3.2540     1.7340    -0.4060 c6         1 T7S      -0.096900
     13 C12         -2.5380     0.6210    -1.1630 c6         1 T7S       0.097000
     14 C2           2.5230    -0.8780    -1.0960 c6         1 T7S       0.097000
     15 C3           1.2450    -1.5070    -0.5590 c6         1 T7S      -0.090400
     16 C9          -4.3350    -0.0140     1.0230 c6         1 T7S      -0.096900
     17 O1          -1.0830    -1.9900     0.8730 o          1 T7S      -0.604100
     18 H6          -0.0570    -0.1550    -1.5490 hc         1 T7S       0.054700
     19 H7          -0.1740     1.5460     0.2500 hc         1 T7S       0.061950
     20 H8           0.7040     0.4780     1.3360 hc         1 T7S       0.061950
     21 H9           1.7360     1.6530    -1.2880 h1         1 T7S       0.054450
     22 H10          2.2030     2.1560     0.3190 h1         1 T7S       0.054450
     23 H12         -4.2020    -1.3970    -0.6240 h1         1 T7S       0.053700
     24 H11         -3.3760    -1.9460     0.8280 h1         1 T7S       0.053700
     25 H15         -5.0370     2.0200     0.7840 hc         1 T7S       0.042700
     26 H16         -5.2660     1.0070    -0.6270 hc         1 T7S       0.042700
     27 H            3.7350     2.2440     1.3470 hc         1 T7S       0.059367
     28 H21          4.5160     1.0300     2.3470 hc         1 T7S       0.059367
     29 H1           5.3970     1.7680     1.0240 hc         1 T7S       0.059367
     30 H18         -3.4240     2.5700    -1.0880 hc         1 T7S       0.048950
     31 H17         -2.6030     2.1020     0.3940 hc         1 T7S       0.048950
     32 H20         -1.5950     0.9850    -1.5610 h1         1 T7S       0.053700
     33 H19         -3.1420     0.3160    -2.0240 h1         1 T7S       0.053700
     34 H2           2.3720    -0.5370    -2.1260 h1         1 T7S       0.054450
     35 H3           3.3310    -1.6030    -1.1090 h1         1 T7S       0.054450
     36 H4           1.4340    -1.9080     0.4390 hc         1 T7S       0.061950
     37 H5           0.9660    -2.3480    -1.1980 hc         1 T7S       0.061950
     38 H14         -5.2840    -0.4320     1.3650 hc         1 T7S       0.048950
     39 H13         -3.7560     0.2380     1.9160 hc         1 T7S       0.048950
@<TRIPOS>BOND
     1     1     5 1   
     2     1     6 1   
     3     1    13 1   
     4     2     3 1   
     5     2     5 1   
     6     2    15 1   
     7     2    18 1   
     8     3     4 1   
     9     3    19 1   
    10     3    20 1   
    11     4     8 1   
    12     4    21 1   
    13     4    22 1   
    14     5    17 2   
    15     6    16 1   
    16     6    23 1   
    17     6    24 1   
    18     7    12 1   
    19     7    16 1   
    20     7    25 1   
    21     7    26 1   
    22     8    11 1   
    23     8    14 1   
    24     9    11 1   
    25     9    27 1   
    26     9    28 1   
    27     9    29 1   
    28    10    11 2   
    29    12    13 1   
    30    12    30 1   
    31    12    31 1   
    32    13    32 1   
    33    13    33 1   
    34    14    15 1   
    35    14    34 1   
    36    14    35 1   
    37    15    36 1   
    38    15    37 1   
    39    16    38 1   
    40    16    39 1   
@<TRIPOS>SUBSTRUCTURE
     1 T7S         1 TEMP              0 ****  ****    0 ROOT
