@<TRIPOS>MOLECULE
T7U
   24    25     1     0     0
SMALL
abcg2


@<TRIPOS>ATOM
      1 C4           1.4200    -4.1550   -50.5220 ca         1 T7U      -0.027000
      2 C5           2.5760    -4.0010   -51.2930 ca         1 T7U      -0.242600
      3 C6           3.7880    -4.7860   -50.9000 c          1 T7U       0.606700
      4 C7           5.6710    -6.1270   -51.6950 cx         1 T7U       0.048700
      5 C8           6.0220    -7.1740   -52.7020 cx         1 T7U      -0.141400
      6 N            4.4880    -5.3440   -51.9220 ns         1 T7U      -0.496900
      7 C            2.5610    -3.0910   -52.3620 ca         1 T7U       0.167100
      8 O            3.6440    -2.8180   -53.1430 oh         1 T7U      -0.544100
      9 C1           1.3960    -2.3790   -52.6500 ca         1 T7U      -0.153000
     10 C2           0.2540    -2.5680   -51.8890 ca         1 T7U      -0.055000
     11 C3           0.2600    -3.4590   -50.8160 ca         1 T7U      -0.155000
     12 C9           5.5520    -7.5800   -51.3270 cx         1 T7U      -0.141400
     13 O1           4.1340    -4.8990   -49.7270 o          1 T7U      -0.576100
     14 H1           1.4490    -4.8450   -49.6890 ha         1 T7U       0.129000
     15 H2           6.4770    -5.5640   -51.2430 h1         1 T7U       0.101700
     16 H3           5.3360    -7.3190   -53.5270 hc         1 T7U       0.078450
     17 H4           7.0670    -7.2990   -52.9530 hc         1 T7U       0.078450
     18 H5           4.0370    -5.4320   -52.8210 hn         1 T7U       0.316500
     19 H6           4.4160    -3.3260   -52.8530 ho         1 T7U       0.477000
     20 H7           1.4090    -1.6750   -53.4730 ha         1 T7U       0.132000
     21 H8          -0.6430    -2.0120   -52.1290 ha         1 T7U       0.118000
     22 H9          -0.6300    -3.6040   -50.2180 ha         1 T7U       0.122000
     23 H10          4.5510    -7.9830   -51.2420 hc         1 T7U       0.078450
     24 H11          6.2740    -7.9830   -50.6300 hc         1 T7U       0.078450
@<TRIPOS>BOND
     1     1     2 ar  
     2     1    11 ar  
     3     1    14 1   
     4     2     3 1   
     5     2     7 ar  
     6     3     6 1   
     7     3    13 2   
     8     4     5 1   
     9     4     6 1   
    10     4    12 1   
    11     4    15 1   
    12     5    12 1   
    13     5    16 1   
    14     5    17 1   
    15     6    18 1   
    16     7     8 1   
    17     7     9 ar  
    18     8    19 1   
    19     9    10 ar  
    20     9    20 1   
    21    10    11 ar  
    22    10    21 1   
    23    11    22 1   
    24    12    23 1   
    25    12    24 1   
@<TRIPOS>SUBSTRUCTURE
     1 T7U         1 TEMP              0 ****  ****    0 ROOT
