@<TRIPOS>MOLECULE
T7U
   24    25     1     0     0
SMALL
No Charge or Current Charge


@<TRIPOS>ATOM
      1 C4           1.4730    -3.8680   -50.2950 ca         1 T7U      -0.027000
      2 C5           2.5530    -4.0080   -51.1990 ca         1 T7U      -0.242600
      3 C6           3.7330    -4.8420   -50.7580 c          1 T7U       0.606700
      4 C7           5.6490    -6.2430   -51.5240 cx         1 T7U       0.048700
      5 C8           6.2590    -6.9320   -52.7190 cx         1 T7U      -0.141400
      6 N            4.4900    -5.4230   -51.7500 ns         1 T7U      -0.496900
      7 C            2.4560    -3.3740   -52.4650 ca         1 T7U       0.167100
      8 O            3.4870    -3.3690   -53.3590 oh         1 T7U      -0.544100
      9 C1           1.2930    -2.6710   -52.8180 ca         1 T7U      -0.153000
     10 C2           0.2220    -2.5610   -51.9190 ca         1 T7U      -0.055000
     11 C3           0.3190    -3.1530   -50.6530 ca         1 T7U      -0.155000
     12 C9           5.4930    -7.7340   -51.6950 cx         1 T7U      -0.141400
     13 O1           4.0110    -4.9930   -49.5760 o          1 T7U      -0.576100
     14 H1           1.5170    -4.3350   -49.3120 ha         1 T7U       0.129000
     15 H2           6.3200    -5.8790   -50.7420 h1         1 T7U       0.101700
     16 H3           5.7980    -6.7800   -53.6920 hc         1 T7U       0.078450
     17 H4           7.3410    -7.0390   -52.7400 hc         1 T7U       0.078450
     18 H5           4.1520    -5.2900   -52.6970 hn         1 T7U       0.316500
     19 H6           4.3170    -3.1690   -52.8730 ho         1 T7U       0.477000
     20 H7           1.2290    -2.1910   -53.7910 ha         1 T7U       0.132000
     21 H8          -0.6730    -2.0090   -52.1990 ha         1 T7U       0.118000
     22 H9          -0.5060    -3.0660   -49.9480 ha         1 T7U       0.122000
     23 H10          4.5150    -8.1160   -51.9760 hc         1 T7U       0.078450
     24 H11          6.0590    -8.3790   -51.0270 hc         1 T7U       0.078450
@<TRIPOS>BOND
     1     1     2 ar  
     2     1    11 ar  
     3     1    14 1   
     4     2     3 1   
     5     2     7 ar  
     6     3     6 1   
     7     3    13 2   
     8     4     5 1   
     9     4     6 1   
    10     4    12 1   
    11     4    15 1   
    12     5    12 1   
    13     5    16 1   
    14     5    17 1   
    15     6    18 1   
    16     7     8 1   
    17     7     9 ar  
    18     8    19 1   
    19     9    10 ar  
    20     9    20 1   
    21    10    11 ar  
    22    10    21 1   
    23    11    22 1   
    24    12    23 1   
    25    12    24 1   
@<TRIPOS>SUBSTRUCTURE
     1 T7U         1 TEMP              0 ****  ****    0 ROOT
