@<TRIPOS>MOLECULE
T7V
   25    25     1     0     0
SMALL
No Charge or Current Charge


@<TRIPOS>ATOM
      1 C10          1.9020     1.9780     1.1190 ca         1 T7V      -0.101000
      2 C01         -1.4610     0.7330    -2.1140 c3         1 T7V      -0.106100
      3 C02         -1.3280     0.7730    -0.5780 c3         1 T7V       0.158000
      4 C04         -3.3510    -0.4940     0.2190 c          1 T7V       0.602100
      5 C06         -3.7930    -1.7940     0.8790 c3         1 T7V      -0.179100
      6 C08          0.1280     0.8420    -0.1240 ca         1 T7V      -0.089300
      7 C09          0.5640     1.9080     0.6910 ca         1 T7V      -0.093000
      8 C11          2.8160     0.9810     0.7370 ca         1 T7V      -0.098000
      9 C12          2.3890    -0.0850    -0.0700 ca         1 T7V       0.118000
     10 C14          1.0530    -0.1570    -0.4980 ca         1 T7V      -0.102000
     11 N03         -1.9930    -0.3720     0.0420 ns         1 T7V      -0.508900
     12 O05         -4.1430     0.3730    -0.1210 o          1 T7V      -0.610100
     13 Cl13         3.5300    -1.3360    -0.5450 cl         1 T7V      -0.204000
     14 H101         2.2290     2.8050     1.7460 ha         1 T7V       0.121000
     15 H012        -2.5150     0.7830    -2.4140 hc         1 T7V       0.045033
     16 H011        -0.9410     1.5860    -2.5640 hc         1 T7V       0.045033
     17 H013        -1.0340    -0.1890    -2.5270 hc         1 T7V       0.045033
     18 H021        -1.8370     1.6830    -0.2290 h1         1 T7V       0.083700
     19 H1          -3.2650    -1.9060     1.8330 hc         1 T7V       0.060367
     20 H062        -4.8790    -1.8540     1.0070 hc         1 T7V       0.060367
     21 H061        -3.4050    -2.6380     0.2980 hc         1 T7V       0.060367
     22 H091        -0.1340     2.6850     0.9950 ha         1 T7V       0.123000
     23 H111         3.8500     1.0340     1.0660 ha         1 T7V       0.131000
     24 H141         0.7390    -0.9930    -1.1190 ha         1 T7V       0.126000
     25 H031        -1.4200    -1.1380     0.3710 hn         1 T7V       0.312500
@<TRIPOS>BOND
     1     1     7 ar  
     2     1     8 ar  
     3     1    14 1   
     4     2     3 1   
     5     2    15 1   
     6     2    16 1   
     7     2    17 1   
     8     3     6 1   
     9     3    11 1   
    10     3    18 1   
    11     4     5 1   
    12     4    11 1   
    13     4    12 2   
    14     5    19 1   
    15     5    20 1   
    16     5    21 1   
    17     6     7 ar  
    18     6    10 ar  
    19     7    22 1   
    20     8     9 ar  
    21     8    23 1   
    22     9    10 ar  
    23     9    13 1   
    24    10    24 1   
    25    11    25 1   
@<TRIPOS>SUBSTRUCTURE
     1 T7V         1 TEMP              0 ****  ****    0 ROOT
