@<TRIPOS>MOLECULE
T7V
   25    25     1     0     0
SMALL
abcg2


@<TRIPOS>ATOM
      1 C10          1.8650     1.9420     1.0930 ca         1 T7V      -0.101000
      2 C01         -1.4440     0.7150    -2.1220 c3         1 T7V      -0.106100
      3 C02         -1.3170     0.7400    -0.6010 c3         1 T7V       0.158000
      4 C04         -3.2530    -0.4410     0.3620 c          1 T7V       0.602100
      5 C06         -3.7430    -1.7490     0.9310 c3         1 T7V      -0.179100
      6 C08          0.1220     0.8220    -0.1440 ca         1 T7V      -0.089300
      7 C09          0.5440     1.8650     0.6720 ca         1 T7V      -0.093000
      8 C11          2.7840     0.9760     0.7140 ca         1 T7V      -0.098000
      9 C12          2.3540    -0.0640    -0.0970 ca         1 T7V       0.118000
     10 C14          1.0420    -0.1500    -0.5310 ca         1 T7V      -0.102000
     11 N03         -1.9560    -0.4150     0.0090 ns         1 T7V      -0.508900
     12 O05         -3.9930     0.5270     0.2420 o          1 T7V      -0.610100
     13 CL13         3.4870    -1.2830    -0.5850 cl         1 T7V      -0.204000
     14 H101         2.1840     2.7610     1.7240 ha         1 T7V       0.121000
     15 H012        -2.4940     0.7090    -2.4140 hc         1 T7V       0.045033
     16 H011        -0.9760     1.5980    -2.5590 hc         1 T7V       0.045033
     17 H013        -0.9700    -0.1680    -2.5530 hc         1 T7V       0.045033
     18 H021        -1.8360     1.6240    -0.2290 h1         1 T7V       0.083700
     19 H1          -4.1010    -1.5890     1.9480 hc         1 T7V       0.060367
     20 H062        -4.5880    -2.1030     0.3420 hc         1 T7V       0.060367
     21 H061        -2.9850    -2.5290     0.9520 hc         1 T7V       0.060367
     22 H091        -0.1630     2.6240     0.9810 ha         1 T7V       0.123000
     23 H111         3.8120     1.0300     1.0420 ha         1 T7V       0.131000
     24 H141         0.7430    -0.9730    -1.1690 ha         1 T7V       0.126000
     25 H031        -1.4170    -1.2630     0.0920 hn         1 T7V       0.312500
@<TRIPOS>BOND
     1     1     7 ar  
     2     1     8 ar  
     3     1    14 1   
     4     2     3 1   
     5     2    15 1   
     6     2    16 1   
     7     2    17 1   
     8     3     6 1   
     9     3    11 1   
    10     3    18 1   
    11     4     5 1   
    12     4    11 1   
    13     4    12 2   
    14     5    19 1   
    15     5    20 1   
    16     5    21 1   
    17     6     7 ar  
    18     6    10 ar  
    19     7    22 1   
    20     8     9 ar  
    21     8    23 1   
    22     9    10 ar  
    23     9    13 1   
    24    10    24 1   
    25    11    25 1   
@<TRIPOS>SUBSTRUCTURE
     1 T7V         1 TEMP              0 ****  ****    0 ROOT
