@<TRIPOS>MOLECULE
T7W
   51    54     1     0     0
SMALL
No Charge or Current Charge


@<TRIPOS>ATOM
      1 C11         10.8980   -24.6010   -28.7410 c6         1 T7W       0.001900
      2 C12         12.1630   -24.2940   -29.5940 c6         1 T7W       0.071400
      3 C13         13.3430   -24.0370   -28.6710 cc         1 T7W       0.484300
      4 C14         15.0210   -24.1460   -27.4030 cd         1 T7W       0.592500
      5 C15         16.1410   -24.7150   -26.6180 ca         1 T7W      -0.087500
      6 C16         16.3910   -26.1050   -26.5890 ca         1 T7W      -0.126000
      7 C17         17.4640   -26.6060   -25.8310 ca         1 T7W       0.321400
      8 C18         18.0610   -24.4820   -25.1330 ca         1 T7W       0.321400
      9 C10         10.3460   -23.3150   -28.2200 cc         1 T7W      -0.196300
     10 C1          13.9150   -20.8790   -32.7250 c3         1 T7W      -0.006000
     11 N           11.9950   -23.1800   -30.6160 n          1 T7W      -0.427800
     12 C           15.2780   -21.4990   -33.1470 c3         1 T7W      -0.086600
     13 O           14.3610   -20.0620   -35.8940 o          1 T7W      -0.737500
     14 C19         17.0120   -23.8960   -25.8630 ca         1 T7W      -0.126000
     15 C2          14.0790   -20.2880   -31.2960 c3         1 T7W      -0.086600
     16 C3          13.5430   -19.6960   -33.6870 c3         1 T7W      -0.206400
     17 C4          13.3820   -20.1160   -35.1650 c          1 T7W       0.718000
     18 C5          12.7820   -21.9670   -32.7480 c3         1 T7W      -0.147400
     19 C6          12.9170   -23.0880   -31.6920 c          1 T7W       0.620100
     20 C7          11.0210   -22.0680   -30.2960 c6         1 T7W       0.084700
     21 C8          10.4070   -22.1490   -28.9120 cd         1 T7W       0.223300
     22 C9           9.4470   -21.6730   -27.0380 cc         1 T7W       0.385400
     23 N1           9.8450   -21.1230   -28.1810 nd         1 T7W      -0.656000
     24 N2           9.7400   -23.0190   -27.0220 na         1 T7W      -0.291500
     25 N3          14.1630   -24.9270   -28.1450 nd         1 T7W      -0.734000
     26 N4          18.2920   -25.8140   -25.1110 nb         1 T7W      -0.662000
     27 N5          14.7620   -22.8500   -27.4490 nc         1 T7W      -0.368300
     28 O1          12.2770   -20.4680   -35.5490 o          1 T7W      -0.737500
     29 O2          13.7760   -23.9490   -31.8200 o          1 T7W      -0.609100
     30 O3          13.6360   -22.7600   -28.2920 os         1 T7W      -0.052700
     31 H1          10.1490   -25.1010   -29.3710 hc         1 T7W       0.069200
     32 H2          11.1380   -25.3030   -27.9300 hc         1 T7W       0.069200
     33 H3          12.3910   -25.2200   -30.1410 h1         1 T7W       0.124700
     34 H4          15.7670   -26.8000   -27.1430 ha         1 T7W       0.142500
     35 H5          17.6680   -27.6750   -25.8000 h4         1 T7W       0.017600
     36 H6          18.7390   -23.8630   -24.5460 h4         1 T7W       0.017600
     37 H7          15.6500   -22.2000   -32.3910 hc         1 T7W       0.027533
     38 H8          15.1940   -22.0430   -34.0950 hc         1 T7W       0.027533
     39 H9          16.0410   -20.7200   -33.2710 hc         1 T7W       0.027533
     40 H10         16.8880   -22.8170   -25.8320 ha         1 T7W       0.142500
     41 H11         13.1700   -19.7690   -30.9730 hc         1 T7W       0.027533
     42 H12         14.3130   -21.0660   -30.5590 hc         1 T7W       0.027533
     43 H13         14.8970   -19.5570   -31.2700 hc         1 T7W       0.027533
     44 H14         14.3630   -18.9710   -33.6060 hc         1 T7W       0.022700
     45 H15         12.5880   -19.3000   -33.3190 hc         1 T7W       0.022700
     46 H16         11.8180   -21.4620   -32.6490 hc         1 T7W       0.089200
     47 H17         12.8010   -22.4590   -33.7270 hc         1 T7W       0.089200
     48 H18         11.5250   -21.0990   -30.3850 h1         1 T7W       0.074700
     49 H19         10.2110   -22.0830   -31.0390 h1         1 T7W       0.074700
     50 H20          8.9600   -21.1700   -26.2110 h5         1 T7W       0.050100
     51 H21          9.5370   -23.6530   -26.2580 hn         1 T7W       0.348000
@<TRIPOS>BOND
     1     1     2 1   
     2     1     9 1   
     3     1    31 1   
     4     1    32 1   
     5     2     3 1   
     6     2    11 1   
     7     2    33 1   
     8     3    25 2   
     9     3    30 1   
    10     4     5 1   
    11     4    25 1   
    12     4    27 2   
    13     5     6 ar  
    14     5    14 ar  
    15     6     7 ar  
    16     6    34 1   
    17     7    26 ar  
    18     7    35 1   
    19     8    14 ar  
    20     8    26 ar  
    21     8    36 1   
    22     9    21 2   
    23     9    24 1   
    24    10    12 1   
    25    10    15 1   
    26    10    16 1   
    27    10    18 1   
    28    11    19 1   
    29    11    20 1   
    30    12    37 1   
    31    12    38 1   
    32    12    39 1   
    33    13    17 1   
    34    14    40 1   
    35    15    41 1   
    36    15    42 1   
    37    15    43 1   
    38    16    17 1   
    39    16    44 1   
    40    16    45 1   
    41    17    28 1   
    42    18    19 1   
    43    18    46 1   
    44    18    47 1   
    45    19    29 2   
    46    20    21 1   
    47    20    48 1   
    48    20    49 1   
    49    21    23 1   
    50    22    23 2   
    51    22    24 1   
    52    22    50 1   
    53    24    51 1   
    54    27    30 1   
@<TRIPOS>SUBSTRUCTURE
     1 T7W         1 TEMP              0 ****  ****    0 ROOT
