@<TRIPOS>MOLECULE
T7W
   51    54     1     0     0
SMALL
bcc


@<TRIPOS>ATOM
      1 C11         11.5860   -24.9410   -29.3060 c6         1 T7W       0.001900
      2 C12         12.8100   -24.3140   -29.9770 c6         1 T7W       0.071400
      3 C13         13.9270   -24.1380   -28.9950 cc         1 T7W       0.528700
      4 C14         15.3240   -24.2420   -27.4690 cd         1 T7W       0.592500
      5 C15         15.9860   -24.6460   -26.2290 ca         1 T7W      -0.087500
      6 C16         15.4010   -25.5970   -25.4020 ca         1 T7W      -0.209300
      7 C17         16.0610   -25.9560   -24.2370 ca         1 T7W       0.386700
      8 C18         17.7790   -24.5340   -24.6600 ca         1 T7W       0.386700
      9 C10         10.9440   -23.8660   -28.5160 cc         1 T7W      -0.210900
     10 C1          13.6420   -20.7150   -32.9680 c3         1 T7W      -0.006000
     11 N           12.4940   -23.0560   -30.6350 n          1 T7W      -0.494800
     12 C           14.7390   -21.3670   -33.8090 c3         1 T7W      -0.086600
     13 O           12.2320   -20.6250   -35.5870 o          1 T7W      -0.842800
     14 C19         17.2080   -24.1030   -25.8460 ca         1 T7W      -0.209300
     15 C2          14.2600   -20.2740   -31.6370 c3         1 T7W      -0.086600
     16 C3          13.1070   -19.4500   -33.6570 c3         1 T7W      -0.206400
     17 C4          12.4200   -19.5180   -35.0400 c          1 T7W       0.928600
     18 C5          12.4520   -21.6710   -32.7090 c3         1 T7W      -0.147400
     19 C6          12.7930   -22.9410   -31.9680 c          1 T7W       0.687100
     20 C7          12.0080   -21.9720   -29.7840 c6         1 T7W       0.084700
     21 C8          11.1390   -22.5340   -28.7130 cd         1 T7W       0.288600
     22 C9           9.8200   -22.6870   -27.0600 cc         1 T7W       0.385400
     23 N1          10.4380   -21.8010   -27.7990 nd         1 T7W      -0.656000
     24 N2          10.0930   -23.9500   -27.4550 na         1 T7W      -0.291900
     25 N3          14.1300   -24.7550   -27.8830 nd         1 T7W      -0.734000
     26 N4          17.2260   -25.4430   -23.8640 nb         1 T7W      -0.662000
     27 N5          15.8190   -23.3560   -28.2810 nc         1 T7W      -0.368300
     28 O1          12.0940   -18.4070   -35.5050 o          1 T7W      -0.842800
     29 O2          13.3080   -23.8740   -32.5680 o          1 T7W      -0.609100
     30 O3          14.9020   -23.2870   -29.2860 os         1 T7W      -0.097100
     31 H1          10.9230   -25.3290   -30.0830 hc         1 T7W       0.069200
     32 H2          11.8890   -25.7900   -28.6920 hc         1 T7W       0.069200
     33 H3          13.1770   -24.9940   -30.7490 h1         1 T7W       0.124700
     34 H4          14.4530   -26.0530   -25.6520 ha         1 T7W       0.160500
     35 H5          15.6230   -26.6960   -23.5770 h4         1 T7W       0.017600
     36 H6          18.7310   -24.1240   -24.3420 h4         1 T7W       0.017600
     37 H7          15.2290   -22.1820   -33.2770 hc         1 T7W       0.027533
     38 H8          14.3520   -21.7530   -34.7490 hc         1 T7W       0.027533
     39 H9          15.5070   -20.6250   -34.0410 hc         1 T7W       0.027533
     40 H10         17.7120   -23.3610   -26.4490 ha         1 T7W       0.160500
     41 H11         13.5250   -19.7820   -30.9960 hc         1 T7W       0.027533
     42 H12         14.6850   -21.1130   -31.0820 hc         1 T7W       0.027533
     43 H13         15.0680   -19.5600   -31.8120 hc         1 T7W       0.027533
     44 H14         13.9400   -18.7440   -33.7490 hc         1 T7W       0.022700
     45 H15         12.4020   -18.9610   -32.9720 hc         1 T7W       0.022700
     46 H16         11.6600   -21.0990   -32.2240 hc         1 T7W       0.089200
     47 H17         12.0600   -21.9810   -33.6770 hc         1 T7W       0.089200
     48 H18         12.8430   -21.4090   -29.3540 h1         1 T7W       0.074700
     49 H19         11.4400   -21.2630   -30.3810 h1         1 T7W       0.074700
     50 H20          9.1640   -22.4730   -26.2300 h5         1 T7W       0.050100
     51 H21          9.7410   -24.7940   -27.0310 hn         1 T7W       0.297700
@<TRIPOS>BOND
     1     1     2 1   
     2     1     9 1   
     3     1    31 1   
     4     1    32 1   
     5     2     3 1   
     6     2    11 1   
     7     2    33 1   
     8     3    25 2   
     9     3    30 1   
    10     4     5 1   
    11     4    25 1   
    12     4    27 2   
    13     5     6 ar  
    14     5    14 ar  
    15     6     7 ar  
    16     6    34 1   
    17     7    26 ar  
    18     7    35 1   
    19     8    14 ar  
    20     8    26 ar  
    21     8    36 1   
    22     9    21 2   
    23     9    24 1   
    24    10    12 1   
    25    10    15 1   
    26    10    16 1   
    27    10    18 1   
    28    11    19 1   
    29    11    20 1   
    30    12    37 1   
    31    12    38 1   
    32    12    39 1   
    33    13    17 1   
    34    14    40 1   
    35    15    41 1   
    36    15    42 1   
    37    15    43 1   
    38    16    17 1   
    39    16    44 1   
    40    16    45 1   
    41    17    28 1   
    42    18    19 1   
    43    18    46 1   
    44    18    47 1   
    45    19    29 2   
    46    20    21 1   
    47    20    48 1   
    48    20    49 1   
    49    21    23 1   
    50    22    23 2   
    51    22    24 1   
    52    22    50 1   
    53    24    51 1   
    54    27    30 1   
@<TRIPOS>SUBSTRUCTURE
     1 T7W         1 TEMP              0 ****  ****    0 ROOT
