@<TRIPOS>MOLECULE
T7X
  143   143     1     0     0
SMALL
abcg2


@<TRIPOS>ATOM
      1 C1          -2.8540     5.2940    -0.7760 c6         1 T7X       0.257300
      2 O1          -1.7690     5.2200     0.1160 os         1 T7X      -0.563400
      3 P1          -1.2910     6.5240     0.9860 p5         1 T7X       1.396800
      4 C2          -2.8450     4.0210    -1.6160 c6         1 T7X       0.154300
      5 O2          -1.6160     3.9560    -2.2950 oh         1 T7X      -0.696500
      6 C3          -4.0110     4.0350    -2.6010 c6         1 T7X       0.116300
      7 O3          -3.9580     2.8200    -3.3170 oh         1 T7X      -0.728500
      8 C4          -5.3430     4.2070    -1.8800 c6         1 T7X       0.100300
      9 O4          -6.4180     4.2790    -2.7970 oh         1 T7X      -0.742000
     10 C5          -5.3230     5.5030    -1.0800 c6         1 T7X       0.116300
     11 O5          -6.5270     5.7040    -0.3780 oh         1 T7X      -0.728500
     12 C6          -4.1900     5.4810    -0.0580 c6         1 T7X       0.154300
     13 O6          -4.3610     4.4440     0.8750 oh         1 T7X      -0.696500
     14 C7           1.1920     6.6690     1.8640 c3         1 T7X       0.220600
     15 C8           1.8510     5.5730     2.6850 c3         1 T7X       0.153300
     16 C9           0.9150     4.7400     3.5330 c3         1 T7X       0.173600
     17 C11         -0.9330     3.3120     3.2220 c          1 T7X       0.620100
     18 O11         -1.7440     6.4160     2.4090 o          1 T7X      -0.827000
     19 C12          4.4000     3.9440     0.5610 c3         1 T7X      -0.144400
     20 O12         -1.5790     7.7730     0.2060 o          1 T7X      -0.827000
     21 C13          5.9120     4.0110     0.4140 c3         1 T7X      -0.064400
     22 O13          0.3110     6.1680     0.8860 os         1 T7X      -0.568400
     23 C14          6.4190     2.9900    -0.6050 c3         1 T7X      -0.049200
     24 C15          7.8970     3.0990    -0.8080 c2         1 T7X      -0.202200
     25 C16          8.8330     2.2120    -0.4740 c2         1 T7X      -0.226200
     26 O16          2.5820     4.6730     1.8420 os         1 T7X      -0.415100
     27 C17          8.6330     0.8670     0.1630 c3         1 T7X      -0.012000
     28 O17          4.4380     5.9190     1.9370 o          1 T7X      -0.519000
     29 C18          8.9820    -0.2330    -0.7990 c2         1 T7X      -0.201200
     30 O18          0.1390     3.8920     2.6970 os         1 T7X      -0.409100
     31 C19          9.9980    -1.0890    -0.7180 c2         1 T7X      -0.225200
     32 O19         -1.2290     3.4020     4.3890 o          1 T7X      -0.519000
     33 C20         11.0210    -1.1880     0.3780 c3         1 T7X      -0.008000
     34 C21         10.8200    -2.4440     1.1750 c2         1 T7X      -0.207200
     35 C22         11.6680    -3.4670     1.2080 c2         1 T7X      -0.225200
     36 C23         11.4480    -4.7460     1.9620 c3         1 T7X      -0.006000
     37 C24         11.3390    -5.9080     1.0170 c2         1 T7X      -0.209200
     38 C25         12.2090    -6.9100     0.9370 c2         1 T7X      -0.224200
     39 C26         12.1380    -8.0360    -0.0450 c3         1 T7X      -0.039200
     40 C27         13.3140    -8.0250    -1.0220 c3         1 T7X      -0.072400
     41 C31         -1.7090     2.5550     2.1870 c3         1 T7X      -0.150400
     42 C32         -2.7040     1.5520     2.7470 c3         1 T7X      -0.057400
     43 C33         -3.4820     0.8740     1.6280 c3         1 T7X      -0.079400
     44 C34         -4.5010    -0.1430     2.1280 c3         1 T7X      -0.073400
     45 C35         -5.2590    -0.8290     1.0000 c3         1 T7X      -0.074400
     46 C36         -6.2870    -1.8410     1.4920 c3         1 T7X      -0.074400
     47 C37         -7.0290    -2.5440     0.3640 c3         1 T7X      -0.074400
     48 C38         -8.0560    -3.5550     0.8580 c3         1 T7X      -0.074400
     49 C39         -8.7930    -4.2690    -0.2670 c3         1 T7X      -0.074400
     50 C40         -9.8180    -5.2800     0.2320 c3         1 T7X      -0.074400
     51 C41        -10.5530    -6.0010    -0.8890 c3         1 T7X      -0.074400
     52 H1          -2.7330     6.1520    -1.4520 h1         1 T7X       0.061700
     53 H2          -2.9670     3.1540    -0.9490 h1         1 T7X       0.069700
     54 H3          -1.6450     3.1860    -2.8720 ho         1 T7X       0.500000
     55 H4          -3.8730     4.8880    -3.2840 h1         1 T7X       0.053700
     56 H5          -4.4720     2.9140    -4.1240 ho         1 T7X       0.504000
     57 H6          -5.4830     3.3660    -1.1880 h1         1 T7X       0.061700
     58 H7          -6.7900     3.4010    -2.9120 ho         1 T7X       0.502000
     59 H8          -5.1370     6.3350    -1.7770 h1         1 T7X       0.053700
     60 H9          -7.2550     5.5190    -0.9830 ho         1 T7X       0.504000
     61 H10         -4.1710     6.4600     0.4450 h1         1 T7X       0.069700
     62 H11         -5.2390     4.5300     1.2600 ho         1 T7X       0.500000
     63 H12          0.7020     7.3460     2.5710 h1         1 T7X       0.033200
     64 H13          1.9710     7.2530     1.3650 h1         1 T7X       0.033200
     65 H14          2.5290     6.0740     3.3830 h1         1 T7X       0.050700
     66 H15          1.4940     4.1340     4.2360 h1         1 T7X       0.054700
     67 H16          0.2790     5.4130     4.1080 h1         1 T7X       0.054700
     68 H17          4.0820     2.9440     0.8680 hc         1 T7X       0.074700
     69 H18          3.9200     4.1210    -0.4090 hc         1 T7X       0.074700
     70 H20          6.2140     5.0140     0.1070 hc         1 T7X       0.051700
     71 H21          6.3880     3.8210     1.3790 hc         1 T7X       0.051700
     72 H22          6.1320     1.9840    -0.2920 hc         1 T7X       0.045200
     73 H23          5.9170     3.1690    -1.5620 hc         1 T7X       0.045200
     74 H24          8.2300     4.0280    -1.2650 ha         1 T7X       0.167000
     75 H25          9.8680     2.4600    -0.6940 ha         1 T7X       0.163000
     76 H26          9.2480     0.8060     1.0640 hc         1 T7X       0.052200
     77 H27          7.5970     0.7410     0.4870 hc         1 T7X       0.052200
     78 H28          8.3260    -0.3050    -1.6620 ha         1 T7X       0.170000
     79 H29         10.1030    -1.8280    -1.5070 ha         1 T7X       0.166000
     80 H30         12.0230    -1.1900    -0.0610 hc         1 T7X       0.049200
     81 H32          9.8920    -2.5020     1.7410 ha         1 T7X       0.170000
     82 H34         12.5900    -3.4110     0.6320 ha         1 T7X       0.166000
     83 H36         12.2770    -4.9160     2.6550 hc         1 T7X       0.049200
     84 H38         10.4900    -5.8850     0.3360 ha         1 T7X       0.170000
     85 H40         13.0620    -6.9200     1.6130 ha         1 T7X       0.163000
     86 H42         12.1350    -8.9920     0.4910 hc         1 T7X       0.042200
     87 H43         11.1980    -7.9890    -0.6030 hc         1 T7X       0.042200
     88 H44         13.3110    -7.0810    -1.5760 hc         1 T7X       0.039200
     89 H45         14.2540    -8.0460    -0.4600 hc         1 T7X       0.039200
     90 H47         -2.2380     3.3030     1.5910 hc         1 T7X       0.093700
     91 H48         -1.0130     2.0670     1.4990 hc         1 T7X       0.093700
     92 H49         -2.1870     0.7980     3.3480 hc         1 T7X       0.042200
     93 H50         -3.4030     2.0570     3.4190 hc         1 T7X       0.042200
     94 H51         -3.9930     1.6400     1.0360 hc         1 T7X       0.042200
     95 H52         -2.7820     0.3790     0.9460 hc         1 T7X       0.042200
     96 H53         -3.9930    -0.8980     2.7370 hc         1 T7X       0.034200
     97 H54         -5.2130     0.3550     2.7960 hc         1 T7X       0.034200
     98 H55         -5.7600    -0.0720     0.3860 hc         1 T7X       0.036700
     99 H56         -4.5450    -1.3310     0.3380 hc         1 T7X       0.036700
    100 H57         -5.7870    -2.5880     2.1180 hc         1 T7X       0.035700
    101 H58         -7.0090    -1.3360     2.1430 hc         1 T7X       0.035700
    102 H59         -7.5280    -1.7980    -0.2650 hc         1 T7X       0.036200
    103 H60         -6.3060    -3.0500    -0.2850 hc         1 T7X       0.036200
    104 H61         -7.5570    -4.2960     1.4920 hc         1 T7X       0.036200
    105 H62         -8.7830    -3.0470     1.5020 hc         1 T7X       0.036200
    106 H63         -9.2930    -3.5290    -0.9020 hc         1 T7X       0.036700
    107 H64         -8.0660    -4.7770    -0.9110 hc         1 T7X       0.036700
    108 H65         -9.3170    -6.0170     0.8700 hc         1 T7X       0.036200
    109 H66        -10.5450    -4.7710     0.8740 hc         1 T7X       0.036200
    110 H67        -11.0560    -5.2650    -1.5270 hc         1 T7X       0.036700
    111 H68         -9.8260    -6.5110    -1.5310 hc         1 T7X       0.036700
    112 C28         13.2860    -9.1910    -2.0020 c3         1 T7X      -0.076400
    113 C29         14.4540    -9.1780    -2.9810 c3         1 T7X      -0.075400
    114 C30         14.4180   -10.3380    -3.9660 c3         1 T7X      -0.088100
    115 C42        -11.5750    -7.0120    -0.3840 c3         1 T7X      -0.074400
    116 C43        -12.3110    -7.7390    -1.5020 c3         1 T7X      -0.074400
    117 C44        -13.3310    -8.7490    -0.9900 c3         1 T7X      -0.074400
    118 C45        -14.0690    -9.4810    -2.1030 c3         1 T7X      -0.075400
    119 C46        -15.0870   -10.4900    -1.5870 c3         1 T7X      -0.075400
    120 H31         10.9650    -0.3180     1.0350 hc         1 T7X       0.049200
    121 H33         10.5380    -4.6640     2.5640 hc         1 T7X       0.049200
    122 H35         13.2880   -10.1350    -1.4450 hc         1 T7X       0.036700
    123 H37         12.3440    -9.1730    -2.5620 hc         1 T7X       0.036700
    124 H39         14.4530    -8.2310    -3.5300 hc         1 T7X       0.036700
    125 H41         15.3930    -9.2000    -2.4200 hc         1 T7X       0.036700
    126 H46         14.4410   -11.2980    -3.4470 hc         1 T7X       0.030367
    127 H69         13.5090   -10.3140    -4.5700 hc         1 T7X       0.030367
    128 H70         15.2690   -10.3100    -4.6470 hc         1 T7X       0.030367
    129 H71        -11.0720    -7.7460     0.2550 hc         1 T7X       0.036700
    130 H72        -12.3030    -6.5020     0.2570 hc         1 T7X       0.036700
    131 H73        -12.8160    -7.0060    -2.1410 hc         1 T7X       0.036700
    132 H74        -11.5850    -8.2490    -2.1430 hc         1 T7X       0.036700
    133 H75        -12.8250    -9.4800    -0.3490 hc         1 T7X       0.036700
    134 H76        -14.0570    -8.2370    -0.3490 hc         1 T7X       0.036700
    135 H77        -14.5760    -8.7510    -2.7450 hc         1 T7X       0.036700
    136 H78        -13.3440    -9.9940    -2.7450 hc         1 T7X       0.036700
    137 H79        -14.5800   -11.2180    -0.9460 hc         1 T7X       0.036200
    138 H80        -15.8120    -9.9770    -0.9470 hc         1 T7X       0.036200
    139 C47        -15.8200   -11.2190    -2.7040 c3         1 T7X      -0.088100
    140 H81        -16.3630   -10.5190    -3.3420 hc         1 T7X       0.030033
    141 H82        -15.1240   -11.7680    -3.3410 hc         1 T7X       0.030033
    142 H83        -16.5420   -11.9350    -2.3100 hc         1 T7X       0.030033
    143 C10          3.8410     4.9580     1.5200 c          1 T7X       0.600100
@<TRIPOS>BOND
     1     1     2 1   
     2     1     4 1   
     3     1    12 1   
     4     1    52 1   
     5     2     3 1   
     6     3    18 1   
     7     3    20 1   
     8     3    22 1   
     9     4     5 1   
    10     4     6 1   
    11     4    53 1   
    12     5    54 1   
    13     6     7 1   
    14     6     8 1   
    15     6    55 1   
    16     7    56 1   
    17     8     9 1   
    18     8    10 1   
    19     8    57 1   
    20     9    58 1   
    21    10    11 1   
    22    10    12 1   
    23    10    59 1   
    24    11    60 1   
    25    12    13 1   
    26    12    61 1   
    27    13    62 1   
    28    14    15 1   
    29    14    22 1   
    30    14    63 1   
    31    14    64 1   
    32    15    16 1   
    33    15    26 1   
    34    15    65 1   
    35    16    30 1   
    36    16    66 1   
    37    16    67 1   
    38    17    30 1   
    39    17    32 2   
    40    17    41 1   
    41    19    21 1   
    42    19    68 1   
    43    19    69 1   
    44    19   143 1   
    45    21    23 1   
    46    21    70 1   
    47    21    71 1   
    48    23    24 1   
    49    23    72 1   
    50    23    73 1   
    51    24    25 2   
    52    24    74 1   
    53    25    27 1   
    54    25    75 1   
    55    26   143 1   
    56    27    29 1   
    57    27    76 1   
    58    27    77 1   
    59    28   143 2   
    60    29    31 2   
    61    29    78 1   
    62    31    33 1   
    63    31    79 1   
    64    33    34 1   
    65    33    80 1   
    66    33   120 1   
    67    34    35 2   
    68    34    81 1   
    69    35    36 1   
    70    35    82 1   
    71    36    37 1   
    72    36    83 1   
    73    36   121 1   
    74    37    38 2   
    75    37    84 1   
    76    38    39 1   
    77    38    85 1   
    78    39    40 1   
    79    39    86 1   
    80    39    87 1   
    81    40    88 1   
    82    40    89 1   
    83    40   112 1   
    84    41    42 1   
    85    41    90 1   
    86    41    91 1   
    87    42    43 1   
    88    42    92 1   
    89    42    93 1   
    90    43    44 1   
    91    43    94 1   
    92    43    95 1   
    93    44    45 1   
    94    44    96 1   
    95    44    97 1   
    96    45    46 1   
    97    45    98 1   
    98    45    99 1   
    99    46    47 1   
   100    46   100 1   
   101    46   101 1   
   102    47    48 1   
   103    47   102 1   
   104    47   103 1   
   105    48    49 1   
   106    48   104 1   
   107    48   105 1   
   108    49    50 1   
   109    49   106 1   
   110    49   107 1   
   111    50    51 1   
   112    50   108 1   
   113    50   109 1   
   114    51   110 1   
   115    51   111 1   
   116    51   115 1   
   117   112   113 1   
   118   112   122 1   
   119   112   123 1   
   120   113   114 1   
   121   113   124 1   
   122   113   125 1   
   123   114   126 1   
   124   114   127 1   
   125   114   128 1   
   126   115   116 1   
   127   115   129 1   
   128   115   130 1   
   129   116   117 1   
   130   116   131 1   
   131   116   132 1   
   132   117   118 1   
   133   117   133 1   
   134   117   134 1   
   135   118   119 1   
   136   118   135 1   
   137   118   136 1   
   138   119   137 1   
   139   119   138 1   
   140   119   139 1   
   141   139   140 1   
   142   139   141 1   
   143   139   142 1   
@<TRIPOS>SUBSTRUCTURE
     1 T7X         1 TEMP              0 ****  ****    0 ROOT
