@<TRIPOS>MOLECULE
T7X
  143   143     1     0     0
SMALL
No Charge or Current Charge


@<TRIPOS>ATOM
      1 C1          -1.9490     3.8300     0.3490 c6         1 T7X       0.257300
      2 O1          -1.3330     3.6980     1.6530 os         1 T7X      -0.563400
      3 P1          -1.4090     4.9300     2.6900 p5         1 T7X       1.396800
      4 C2          -1.2450     2.9000    -0.7030 c6         1 T7X       0.154300
      5 O2           0.1660     3.1550    -0.8390 oh         1 T7X      -0.696500
      6 C3          -1.8980     3.0690    -2.1030 c6         1 T7X       0.116300
      7 O3          -1.2480     2.2310    -3.0750 oh         1 T7X      -0.728500
      8 C4          -3.4070     2.7150    -2.0400 c6         1 T7X       0.100300
      9 O4          -4.0040     2.8190    -3.3450 oh         1 T7X      -0.742000
     10 C5          -4.1350     3.6630    -1.0410 c6         1 T7X       0.116300
     11 O5          -5.5400     3.3260    -0.9920 oh         1 T7X      -0.728500
     12 C6          -3.5070     3.5700     0.3850 c6         1 T7X       0.154300
     13 O6          -3.8480     2.2890     0.9550 oh         1 T7X      -0.696500
     14 C7           0.8720     6.3110     2.9200 c3         1 T7X       0.220600
     15 C8           2.1590     5.4180     2.8600 c3         1 T7X       0.153300
     16 C9           2.1040     4.0580     3.6080 c3         1 T7X       0.173600
     17 C11          1.2970     1.8070     3.3380 c          1 T7X       0.620100
     18 O11         -1.1280     4.4710     4.0810 o          1 T7X      -0.827000
     19 C12          3.4010     5.7900    -0.6810 c3         1 T7X      -0.144400
     20 O12         -2.7020     5.6700     2.6180 o          1 T7X      -0.827000
     21 C13          4.8880     5.3680    -0.7630 c3         1 T7X      -0.064400
     22 O13         -0.2060     5.8270     2.0950 os         1 T7X      -0.568400
     23 C14          5.3090     4.9030    -2.1720 c3         1 T7X      -0.049200
     24 C15          6.7800     4.5360    -2.2350 c2         1 T7X      -0.202200
     25 C16          7.3310     3.3320    -1.9940 c2         1 T7X      -0.226200
     26 O16          2.5810     5.1880     1.4910 os         1 T7X      -0.415100
     27 C17          6.6250     2.0560    -1.5740 c3         1 T7X      -0.012000
     28 O17          3.2350     7.3670     1.1580 o          1 T7X      -0.519000
     29 C18          6.9120     0.9430    -2.5640 c2         1 T7X      -0.201200
     30 O18          1.4140     3.0680     2.8210 os         1 T7X      -0.409100
     31 C19          7.2230    -0.3350    -2.2830 c2         1 T7X      -0.225200
     32 O19          1.8100     1.4430     4.3890 o          1 T7X      -0.519000
     33 C20          7.3390    -0.9650    -0.9080 c3         1 T7X      -0.008000
     34 C21          7.0680    -2.4540    -0.9660 c2         1 T7X      -0.207200
     35 C22          7.8780    -3.4100    -0.4860 c2         1 T7X      -0.225200
     36 C23          7.6050    -4.8980    -0.5380 c3         1 T7X      -0.006000
     37 C24          8.8010    -5.6460    -1.0870 c2         1 T7X      -0.209200
     38 C25          9.3810    -6.7110    -0.5120 c2         1 T7X      -0.224200
     39 C26         10.5690    -7.4680    -1.0700 c3         1 T7X      -0.039200
     40 C27         11.8000    -7.3890    -0.1430 c3         1 T7X      -0.072400
     41 C31          0.6470     0.8400     2.3470 c3         1 T7X      -0.150400
     42 C32         -0.7510     0.3790     2.8230 c3         1 T7X      -0.057400
     43 C33         -1.4130    -0.6220     1.8520 c3         1 T7X      -0.079400
     44 C34         -2.8190    -1.0710     2.3070 c3         1 T7X      -0.073400
     45 C35         -3.4930    -2.0370     1.3090 c3         1 T7X      -0.074400
     46 C36         -4.9270    -2.4330     1.7220 c3         1 T7X      -0.074400
     47 C37         -5.6040    -3.3850     0.7110 c3         1 T7X      -0.074400
     48 C38         -7.0610    -3.7320     1.0880 c3         1 T7X      -0.074400
     49 C39         -7.7350    -4.6840     0.0750 c3         1 T7X      -0.074400
     50 C40         -9.2080    -4.9940     0.4220 c3         1 T7X      -0.074400
     51 C41         -9.8760    -5.9520    -0.5880 c3         1 T7X      -0.074400
     52 H1          -1.7990     4.8660     0.0080 h1         1 T7X       0.061700
     53 H2          -1.4010     1.8590    -0.3810 h1         1 T7X       0.069700
     54 H3           0.3760     2.8050    -1.7380 ho         1 T7X       0.500000
     55 H4          -1.8060     4.1240    -2.4050 h1         1 T7X       0.053700
     56 H5          -1.9370     2.1070    -3.7740 ho         1 T7X       0.504000
     57 H6          -3.5050     1.6820    -1.6710 h1         1 T7X       0.061700
     58 H7          -4.9740     2.8820    -3.1680 ho         1 T7X       0.502000
     59 H8          -4.0110     4.6980    -1.4000 h1         1 T7X       0.053700
     60 H9          -6.0340     4.1420    -0.7340 ho         1 T7X       0.504000
     61 H10         -3.9740     4.3640     0.9820 h1         1 T7X       0.069700
     62 H11         -4.7380     2.0910     0.5800 ho         1 T7X       0.500000
     63 H12          0.5560     6.4000     3.9680 h1         1 T7X       0.033200
     64 H13          1.1330     7.3290     2.6040 h1         1 T7X       0.033200
     65 H14          2.9400     5.9910     3.3780 h1         1 T7X       0.050700
     66 H15          3.1350     3.7310     3.8010 h1         1 T7X       0.054700
     67 H16          1.6140     4.1990     4.5800 h1         1 T7X       0.054700
     68 H17          2.7910     4.9200    -0.9510 hc         1 T7X       0.074700
     69 H18          3.2240     6.6170    -1.3770 hc         1 T7X       0.074700
     70 H20          5.5200     6.2130    -0.4600 hc         1 T7X       0.051700
     71 H21          5.0750     4.5580    -0.0460 hc         1 T7X       0.051700
     72 H22          4.6820     4.0550    -2.4740 hc         1 T7X       0.045200
     73 H23          5.1000     5.7020    -2.8950 hc         1 T7X       0.045200
     74 H24          7.4240     5.3700    -2.5220 ha         1 T7X       0.167000
     75 H25          8.4130     3.2150    -2.0840 ha         1 T7X       0.163000
     76 H26          6.9590     1.7810    -0.5670 hc         1 T7X       0.052200
     77 H27          5.5420     2.2050    -1.4980 hc         1 T7X       0.052200
     78 H28          6.8550     1.2630    -3.6060 ha         1 T7X       0.170000
     79 H29          7.4180    -1.0280    -3.1040 ha         1 T7X       0.166000
     80 H30          8.3420    -0.7800    -0.5040 hc         1 T7X       0.049200
     81 H32          6.1210    -2.7180    -1.4410 ha         1 T7X       0.170000
     82 H34          8.8220    -3.1450    -0.0050 ha         1 T7X       0.166000
     83 H36          7.3570    -5.2620     0.4680 hc         1 T7X       0.049200
     84 H38          9.1800    -5.2510    -2.0320 ha         1 T7X       0.170000
     85 H40          8.9980    -7.1080     0.4310 ha         1 T7X       0.163000
     86 H42         10.2980    -8.5200    -1.2200 hc         1 T7X       0.042200
     87 H43         10.8420    -7.0730    -2.0570 hc         1 T7X       0.042200
     88 H44         12.0710    -6.3360     0.0040 hc         1 T7X       0.039200
     89 H45         11.5330    -7.7920     0.8430 hc         1 T7X       0.039200
     90 H47          0.5320     1.3410     1.3800 hc         1 T7X       0.093700
     91 H48          1.2940    -0.0380     2.2440 hc         1 T7X       0.093700
     92 H49         -0.6610    -0.0850     3.8130 hc         1 T7X       0.042200
     93 H50         -1.4000     1.2560     2.9400 hc         1 T7X       0.042200
     94 H51         -1.4890    -0.1620     0.8590 hc         1 T7X       0.042200
     95 H52         -0.7700    -1.5040     1.7470 hc         1 T7X       0.042200
     96 H53         -2.7440    -1.5570     3.2880 hc         1 T7X       0.034200
     97 H54         -3.4540    -0.1860     2.4360 hc         1 T7X       0.034200
     98 H55         -3.5240    -1.5640     0.3180 hc         1 T7X       0.036700
     99 H56         -2.8800    -2.9420     1.2130 hc         1 T7X       0.036700
    100 H57         -4.9010    -2.9120     2.7090 hc         1 T7X       0.035700
    101 H58         -5.5350    -1.5240     1.8220 hc         1 T7X       0.035700
    102 H59         -5.5920    -2.9220    -0.2830 hc         1 T7X       0.036200
    103 H60         -5.0180    -4.3110     0.6410 hc         1 T7X       0.036200
    104 H61         -7.0780    -4.1930     2.0830 hc         1 T7X       0.036200
    105 H62         -7.6450    -2.8050     1.1530 hc         1 T7X       0.036200
    106 H63         -7.6890    -4.2360    -0.9250 hc         1 T7X       0.036700
    107 H64         -7.1680    -5.6230     0.0320 hc         1 T7X       0.036700
    108 H65         -9.2570    -5.4350     1.4250 hc         1 T7X       0.036200
    109 H66         -9.7740    -4.0540     0.4570 hc         1 T7X       0.036200
    110 H67         -9.8080    -5.5190    -1.5940 hc         1 T7X       0.036700
    111 H68         -9.3210    -6.8980    -0.6080 hc         1 T7X       0.036700
    112 C28         13.0230    -8.1580    -0.6910 c3         1 T7X      -0.076400
    113 C29         14.2520    -8.0830     0.2410 c3         1 T7X      -0.075400
    114 C30         15.4720    -8.8510    -0.3050 c3         1 T7X      -0.088100
    115 C42        -11.3580    -6.2390    -0.2610 c3         1 T7X      -0.074400
    116 C43        -12.0230    -7.2030    -1.2690 c3         1 T7X      -0.074400
    117 C44        -13.5090    -7.4810    -0.9530 c3         1 T7X      -0.074400
    118 C45        -14.1670    -8.4540    -1.9560 c3         1 T7X      -0.075400
    119 C46        -15.6540    -8.7310    -1.6460 c3         1 T7X      -0.075400
    120 H31          6.6340    -0.4980    -0.2100 hc         1 T7X       0.049200
    121 H33          6.7260    -5.1020    -1.1620 hc         1 T7X       0.049200
    122 H35         12.7490    -9.2100    -0.8410 hc         1 T7X       0.036700
    123 H37         13.2920    -7.7530    -1.6740 hc         1 T7X       0.036700
    124 H39         14.5310    -7.0320     0.3920 hc         1 T7X       0.036700
    125 H41         13.9880    -8.4880     1.2260 hc         1 T7X       0.036700
    126 H46         15.2350    -9.9140    -0.4340 hc         1 T7X       0.030367
    127 H69         15.7840    -8.4450    -1.2750 hc         1 T7X       0.030367
    128 H70         16.3170    -8.7690     0.3890 hc         1 T7X       0.030367
    129 H71        -11.4290    -6.6660     0.7470 hc         1 T7X       0.036700
    130 H72        -11.9140    -5.2930    -0.2480 hc         1 T7X       0.036700
    131 H73        -11.9420    -6.7800    -2.2780 hc         1 T7X       0.036700
    132 H74        -11.4720    -8.1520    -1.2740 hc         1 T7X       0.036700
    133 H75        -13.5910    -7.8960     0.0590 hc         1 T7X       0.036700
    134 H76        -14.0610    -6.5330    -0.9570 hc         1 T7X       0.036700
    135 H77        -14.0810    -8.0410    -2.9690 hc         1 T7X       0.036700
    136 H78        -13.6160    -9.4030    -1.9500 hc         1 T7X       0.036700
    137 H79        -15.7450    -9.1380    -0.6310 hc         1 T7X       0.036200
    138 H80        -16.2110    -7.7850    -1.6620 hc         1 T7X       0.036200
    139 C47        -16.3050    -9.7120    -2.6390 c3         1 T7X      -0.088100
    140 H81        -16.2570    -9.3190    -3.6610 hc         1 T7X       0.030033
    141 H82        -15.7940   -10.6830    -2.6170 hc         1 T7X       0.030033
    142 H83        -17.3580    -9.8740    -2.3820 hc         1 T7X       0.030033
    143 C10          3.0280     6.2380     0.7330 c          1 T7X       0.600100
@<TRIPOS>BOND
     1     1     2 1   
     2     1     4 1   
     3     1    12 1   
     4     1    52 1   
     5     2     3 1   
     6     3    18 1   
     7     3    20 1   
     8     3    22 1   
     9     4     5 1   
    10     4     6 1   
    11     4    53 1   
    12     5    54 1   
    13     6     7 1   
    14     6     8 1   
    15     6    55 1   
    16     7    56 1   
    17     8     9 1   
    18     8    10 1   
    19     8    57 1   
    20     9    58 1   
    21    10    11 1   
    22    10    12 1   
    23    10    59 1   
    24    11    60 1   
    25    12    13 1   
    26    12    61 1   
    27    13    62 1   
    28    14    15 1   
    29    14    22 1   
    30    14    63 1   
    31    14    64 1   
    32    15    16 1   
    33    15    26 1   
    34    15    65 1   
    35    16    30 1   
    36    16    66 1   
    37    16    67 1   
    38    17    30 1   
    39    17    32 2   
    40    17    41 1   
    41    19    21 1   
    42    19    68 1   
    43    19    69 1   
    44    19   143 1   
    45    21    23 1   
    46    21    70 1   
    47    21    71 1   
    48    23    24 1   
    49    23    72 1   
    50    23    73 1   
    51    24    25 2   
    52    24    74 1   
    53    25    27 1   
    54    25    75 1   
    55    26   143 1   
    56    27    29 1   
    57    27    76 1   
    58    27    77 1   
    59    28   143 2   
    60    29    31 2   
    61    29    78 1   
    62    31    33 1   
    63    31    79 1   
    64    33    34 1   
    65    33    80 1   
    66    33   120 1   
    67    34    35 2   
    68    34    81 1   
    69    35    36 1   
    70    35    82 1   
    71    36    37 1   
    72    36    83 1   
    73    36   121 1   
    74    37    38 2   
    75    37    84 1   
    76    38    39 1   
    77    38    85 1   
    78    39    40 1   
    79    39    86 1   
    80    39    87 1   
    81    40    88 1   
    82    40    89 1   
    83    40   112 1   
    84    41    42 1   
    85    41    90 1   
    86    41    91 1   
    87    42    43 1   
    88    42    92 1   
    89    42    93 1   
    90    43    44 1   
    91    43    94 1   
    92    43    95 1   
    93    44    45 1   
    94    44    96 1   
    95    44    97 1   
    96    45    46 1   
    97    45    98 1   
    98    45    99 1   
    99    46    47 1   
   100    46   100 1   
   101    46   101 1   
   102    47    48 1   
   103    47   102 1   
   104    47   103 1   
   105    48    49 1   
   106    48   104 1   
   107    48   105 1   
   108    49    50 1   
   109    49   106 1   
   110    49   107 1   
   111    50    51 1   
   112    50   108 1   
   113    50   109 1   
   114    51   110 1   
   115    51   111 1   
   116    51   115 1   
   117   112   113 1   
   118   112   122 1   
   119   112   123 1   
   120   113   114 1   
   121   113   124 1   
   122   113   125 1   
   123   114   126 1   
   124   114   127 1   
   125   114   128 1   
   126   115   116 1   
   127   115   129 1   
   128   115   130 1   
   129   116   117 1   
   130   116   131 1   
   131   116   132 1   
   132   117   118 1   
   133   117   133 1   
   134   117   134 1   
   135   118   119 1   
   136   118   135 1   
   137   118   136 1   
   138   119   137 1   
   139   119   138 1   
   140   119   139 1   
   141   139   140 1   
   142   139   141 1   
   143   139   142 1   
@<TRIPOS>SUBSTRUCTURE
     1 T7X         1 TEMP              0 ****  ****    0 ROOT
