@<TRIPOS>MOLECULE
T7Y
   30    31     1     0     0
SMALL
No Charge or Current Charge


@<TRIPOS>ATOM
      1 N1           2.0820    -0.2930     0.0430 n          1 T7Y      -0.236400
      2 C4          -0.5570     2.3720     0.5450 ca         1 T7Y      -0.067000
      3 C5           0.7030     1.7580     0.4610 ca         1 T7Y      -0.143000
      4 C6           0.8170     0.3610     0.2940 ca         1 T7Y       0.010000
      5 C7          -0.3700    -0.3770     0.0900 ca         1 T7Y      -0.219000
      6 C8           2.3000    -1.7000     0.4550 c5         1 T7Y       0.097000
      7 C10          4.2460    -0.8450    -0.6180 c5         1 T7Y      -0.169400
      8 C           -4.9970    -1.6000    -0.2590 c3         1 T7Y      -0.184100
      9 O           -4.6450     0.7300     0.2090 o          1 T7Y      -0.574100
     10 C1          -4.1380    -0.3670     0.0030 c          1 T7Y       0.609100
     11 C11          3.2410     0.2990    -0.5020 c          1 T7Y       0.567000
     12 C2          -1.6400     0.2230     0.1680 ca         1 T7Y       0.002000
     13 C3          -1.7260     1.6090     0.4090 ca         1 T7Y      -0.151000
     14 C9           3.8530    -1.7730     0.5550 c5         1 T7Y      -0.092400
     15 O1           3.4450     1.4930    -0.6770 o          1 T7Y      -0.525000
     16 H4          -0.6260     3.4450     0.7100 ha         1 T7Y       0.117000
     17 H5           1.5830     2.3830     0.5750 ha         1 T7Y       0.139000
     18 H6          -0.3110    -1.4390    -0.1310 ha         1 T7Y       0.105000
     19 H8           1.8140    -1.9330     1.4120 h1         1 T7Y       0.050200
     20 H7           1.9150    -2.3880    -0.3100 h1         1 T7Y       0.050200
     21 H12          4.0480    -1.3720    -1.5590 hc         1 T7Y       0.079200
     22 H11          5.2780    -0.4810    -0.6140 hc         1 T7Y       0.079200
     23 H2          -2.5340    -1.5820    -0.2020 hn         1 T7Y       0.146000
     24 H           -4.7290    -2.3810     0.4620 hc         1 T7Y       0.063700
     25 H13         -6.0710    -1.3810    -0.2370 hc         1 T7Y       0.063700
     26 H1          -4.6950    -2.0500    -1.2110 hc         1 T7Y       0.063700
     27 H3          -2.6830     2.1180     0.4760 ha         1 T7Y       0.149000
     28 H10          4.2070    -1.3740     1.5140 hc         1 T7Y       0.059700
     29 H9           4.2390    -2.7940     0.4520 hc         1 T7Y       0.059700
     30 N           -2.7720    -0.6160    -0.0180 ns         1 T7Y      -0.152000
@<TRIPOS>BOND
     1     1     4 1   
     2     1     6 1   
     3     1    11 1   
     4     2     3 ar  
     5     2    13 ar  
     6     2    16 1   
     7     3     4 ar  
     8     3    17 1   
     9     4     5 ar  
    10     5    12 ar  
    11     5    18 1   
    12     6    14 1   
    13     6    19 1   
    14     6    20 1   
    15     7    11 1   
    16     7    14 1   
    17     7    21 1   
    18     7    22 1   
    19     8    10 1   
    20     8    24 1   
    21     8    25 1   
    22     8    26 1   
    23     9    10 2   
    24    10    30 1   
    25    11    15 2   
    26    12    13 ar  
    27    12    30 1   
    28    13    27 1   
    29    14    28 1   
    30    14    29 1   
    31    23    30 1   
@<TRIPOS>SUBSTRUCTURE
     1 T7Y         1 TEMP              0 ****  ****    0 ROOT
