@<TRIPOS>MOLECULE
T7Y
   30    31     1     0     0
SMALL
bcc


@<TRIPOS>ATOM
      1 N1           2.0570    -0.2440     0.0890 n          1 T7Y      -0.396000
      2 C4          -0.5530     2.3350     0.4990 ca         1 T7Y      -0.085000
      3 C5           0.7060     1.7690     0.4100 ca         1 T7Y      -0.161000
      4 C6           0.8130     0.3980     0.1670 ca         1 T7Y       0.102600
      5 C7          -0.3440    -0.3610     0.0320 ca         1 T7Y      -0.237000
      6 C8           2.2050    -1.6660     0.3850 c5         1 T7Y       0.097000
      7 C10          4.2540    -0.7810    -0.4590 c5         1 T7Y      -0.169400
      8 C           -4.8860    -1.6100    -0.1690 c3         1 T7Y      -0.184100
      9 O           -4.4980     0.7200     0.2400 o          1 T7Y      -0.574100
     10 C1          -4.0310    -0.3840     0.0320 c          1 T7Y       0.676100
     11 C11          3.1920     0.2940    -0.4510 c          1 T7Y       0.709500
     12 C2          -1.6110     0.2200     0.1290 ca         1 T7Y       0.094600
     13 C3          -1.7170     1.5900     0.3630 ca         1 T7Y      -0.169000
     14 C9           3.7160    -1.8420     0.4890 c5         1 T7Y      -0.092400
     15 O1           3.3130     1.4250    -0.8780 o          1 T7Y      -0.600500
     16 H4          -0.6370     3.3970     0.6900 ha         1 T7Y       0.135000
     17 H5           1.5810     2.3840     0.5460 ha         1 T7Y       0.157000
     18 H6          -0.2740    -1.4250    -0.1600 ha         1 T7Y       0.123000
     19 H8           1.6830    -1.9210     1.3070 h1         1 T7Y       0.050200
     20 H7           1.7900    -2.2760    -0.4220 h1         1 T7Y       0.050200
     21 H12          4.3420    -1.1590    -1.4820 hc         1 T7Y       0.079200
     22 H11          5.2240    -0.3740    -0.1780 hc         1 T7Y       0.079200
     23 H2          -2.4480    -1.6070    -0.2040 hn         1 T7Y       0.312500
     24 H           -4.7860    -2.2820     0.6850 hc         1 T7Y       0.063700
     25 H13         -5.9300    -1.3260    -0.2660 hc         1 T7Y       0.063700
     26 H1          -4.5870    -2.1650    -1.0580 hc         1 T7Y       0.063700
     27 H3          -2.6740     2.0750     0.4480 ha         1 T7Y       0.167000
     28 H10          4.0460    -1.6400     1.5090 hc         1 T7Y       0.059700
     29 H9           4.0260    -2.8520     0.2290 hc         1 T7Y       0.059700
     30 N           -2.6960    -0.6450    -0.0280 ns         1 T7Y      -0.478100
@<TRIPOS>BOND
     1     1     4 1   
     2     1     6 1   
     3     1    11 1   
     4     2     3 ar  
     5     2    13 ar  
     6     2    16 1   
     7     3     4 ar  
     8     3    17 1   
     9     4     5 ar  
    10     5    12 ar  
    11     5    18 1   
    12     6    14 1   
    13     6    19 1   
    14     6    20 1   
    15     7    11 1   
    16     7    14 1   
    17     7    21 1   
    18     7    22 1   
    19     8    10 1   
    20     8    24 1   
    21     8    25 1   
    22     8    26 1   
    23     9    10 2   
    24    10    30 1   
    25    11    15 2   
    26    12    13 ar  
    27    12    30 1   
    28    13    27 1   
    29    14    28 1   
    30    14    29 1   
    31    23    30 1   
@<TRIPOS>SUBSTRUCTURE
     1 T7Y         1 TEMP              0 ****  ****    0 ROOT
