@<TRIPOS>MOLECULE
T80
   94    93     1     0     0
SMALL
bcc


@<TRIPOS>ATOM
      1 C1          -3.4370    -1.7040   -14.8340 c3         1 T80       0.122700
      2 O2          -3.2030    -0.6150   -13.9790 os         1 T80      -0.396600
      3 C3          -1.8370    -0.3180   -13.8460 c3         1 T80       0.135400
      4 C4          -1.6580     0.8510   -12.9120 c3         1 T80       0.138400
      5 O5          -2.0710     0.4930   -11.6180 os         1 T80      -0.388600
      6 C6          -1.9410     1.5460   -10.6970 c3         1 T80       0.138400
      7 C7          -2.4400     1.1050    -9.3450 c3         1 T80       0.138400
      8 O8          -1.6140     0.0850    -8.8430 os         1 T80      -0.389600
      9 C9          -2.0180    -0.3620    -7.5740 c3         1 T80       0.138400
     10 C10         -1.1100    -1.4710    -7.1100 c3         1 T80       0.138400
     11 O11          0.1890    -0.9730    -6.9180 os         1 T80      -0.388600
     12 C12          1.0820    -1.9550    -6.4570 c3         1 T80       0.139400
     13 C13          2.4580    -1.3630    -6.3020 c3         1 T80       0.138400
     14 O14          2.4430    -0.3830    -5.2940 os         1 T80      -0.390600
     15 C15          3.7090     0.1730    -5.0570 c3         1 T80       0.134400
     16 C16          3.6100     1.2110    -3.9720 c3         1 T80       0.144400
     17 O17          3.2220     0.5520    -2.7630 os         1 T80      -0.418900
     18 C18          3.0440     1.2940    -1.6760 c          1 T80       0.643100
     19 O19          3.2120     2.4880    -1.6550 o          1 T80      -0.541000
     20 C20          2.6090     0.4540    -0.5060 c3         1 T80      -0.138400
     21 C21          2.4180     1.2390     0.7820 c3         1 T80      -0.067400
     22 C22          1.9770     0.3360     1.9270 c3         1 T80      -0.076400
     23 C23          1.7720     1.0860     3.2370 c3         1 T80      -0.074400
     24 C24          1.3190     0.1790     4.3750 c3         1 T80      -0.074400
     25 C25          1.1120     0.9140     5.6930 c3         1 T80      -0.074400
     26 C26          0.6470    -0.0030     6.8180 c3         1 T80      -0.074400
     27 C27          0.4300     0.7200     8.1420 c3         1 T80      -0.074400
     28 C28         -0.0450    -0.2060     9.2550 c3         1 T80      -0.074400
     29 C29         -0.2620     0.5030    10.5860 c3         1 T80      -0.074400
     30 C30         -0.7450    -0.4320    11.6880 c3         1 T80      -0.074400
     31 C31         -0.9600     0.2660    13.0260 c3         1 T80      -0.074400
     32 C32         -1.4450    -0.6780    14.1200 c3         1 T80      -0.074400
     33 C33         -1.6550     0.0090    15.4640 c3         1 T80      -0.074400
     34 C34         -2.1390    -0.9420    16.5520 c3         1 T80      -0.075400
     35 C35         -2.3430    -0.2630    17.9010 c3         1 T80      -0.075400
     36 C36         -2.8220    -1.2230    18.9810 c3         1 T80      -0.089100
     37 H11         -2.9610    -2.6230   -14.4710 h1         1 T80       0.026700
     38 H12         -4.5120    -1.8710   -14.8830 h1         1 T80       0.026700
     39 H13         -3.0700    -1.5170   -15.8510 h1         1 T80       0.026700
     40 H31         -1.3920    -0.0520   -14.8160 h1         1 T80       0.028700
     41 H32         -1.2780    -1.1880   -13.4700 h1         1 T80       0.028700
     42 H41         -2.2260     1.7170   -13.2810 h1         1 T80       0.027200
     43 H42         -0.5970     1.1390   -12.9250 h1         1 T80       0.027200
     44 H61         -2.5290     2.4200   -11.0100 h1         1 T80       0.028200
     45 H62         -0.8950     1.8790   -10.6210 h1         1 T80       0.028200
     46 H71         -3.4830     0.7650    -9.4230 h1         1 T80       0.028700
     47 H72         -2.4400     1.9790    -8.6790 h1         1 T80       0.028700
     48 H91         -3.0460    -0.7510    -7.6000 h1         1 T80       0.028700
     49 H92         -2.0090     0.4600    -6.8450 h1         1 T80       0.028700
     50 H101        -1.1130    -2.2910    -7.8430 h1         1 T80       0.028200
     51 H102        -1.5200    -1.8790    -6.1760 h1         1 T80       0.028200
     52 H121         1.1510    -2.7930    -7.1650 h1         1 T80       0.028200
     53 H122         0.7450    -2.3760    -5.4990 h1         1 T80       0.028200
     54 H131         2.7960    -0.9390    -7.2580 h1         1 T80       0.029700
     55 H132         3.1530    -2.1760    -6.0510 h1         1 T80       0.029700
     56 H151         4.1040     0.6690    -5.9550 h1         1 T80       0.030200
     57 H152         4.4370    -0.6020    -4.7780 h1         1 T80       0.030200
     58 H161         2.8800     1.9790    -4.2370 h1         1 T80       0.058700
     59 H162         4.5820     1.6950    -3.8510 h1         1 T80       0.058700
     60 H201         3.3470    -0.3420    -0.3640 hc         1 T80       0.071200
     61 H202         1.6810    -0.0550    -0.7840 hc         1 T80       0.071200
     62 H211         1.6730     2.0260     0.6320 hc         1 T80       0.054200
     63 H212         3.3500     1.7410     1.0530 hc         1 T80       0.054200
     64 H221         2.7200    -0.4550     2.0740 hc         1 T80       0.037200
     65 H222         1.0450    -0.1700     1.6510 hc         1 T80       0.037200
     66 H231         1.0330     1.8810     3.0910 hc         1 T80       0.040200
     67 H232         2.7050     1.5860     3.5200 hc         1 T80       0.040200
     68 H241         2.0570    -0.6180     4.5160 hc         1 T80       0.036700
     69 H242         0.3870    -0.3190     4.0880 hc         1 T80       0.036700
     70 H251         0.3790     1.7150     5.5520 hc         1 T80       0.038200
     71 H252         2.0460     1.4040     5.9870 hc         1 T80       0.038200
     72 H261         1.3810    -0.8040     6.9580 hc         1 T80       0.036700
     73 H262        -0.2850    -0.4950     6.5190 hc         1 T80       0.036700
     74 H271        -0.3000     1.5240     8.0030 hc         1 T80       0.037700
     75 H272         1.3630     1.2060     8.4480 hc         1 T80       0.037700
     76 H281         0.6830    -1.0130     9.3890 hc         1 T80       0.036700
     77 H282        -0.9790    -0.6900     8.9470 hc         1 T80       0.036700
     78 H291        -0.9890     1.3130    10.4530 hc         1 T80       0.037700
     79 H292         0.6720     0.9820    10.8990 hc         1 T80       0.037700
     80 H301        -0.0200    -1.2440    11.8160 hc         1 T80       0.036700
     81 H302        -1.6800    -0.9070    11.3730 hc         1 T80       0.036700
     82 H311        -1.6850     1.0780    12.9010 hc         1 T80       0.037700
     83 H312        -0.0250     0.7390    13.3430 hc         1 T80       0.037700
     84 H321        -0.7230    -1.4940    14.2380 hc         1 T80       0.036700
     85 H322        -2.3830    -1.1470    13.8030 hc         1 T80       0.036700
     86 H331        -2.3770     0.8240    15.3470 hc         1 T80       0.037200
     87 H332        -0.7160     0.4760    15.7830 hc         1 T80       0.037200
     88 H341        -1.4190    -1.7600    16.6650 hc         1 T80       0.036700
     89 H342        -3.0790    -1.4070    16.2350 hc         1 T80       0.036700
     90 H351        -3.0650     0.5530    17.7900 hc         1 T80       0.036700
     91 H352        -1.4050     0.2030    18.2170 hc         1 T80       0.036700
     92 H361        -2.9480    -0.7180    19.9400 hc         1 T80       0.031367
     93 H362        -3.7820    -1.6710    18.7150 hc         1 T80       0.031367
     94 H363        -2.1100    -2.0380    19.1280 hc         1 T80       0.031367
@<TRIPOS>BOND
     1     1     2 1   
     2     1    37 1   
     3     1    38 1   
     4     1    39 1   
     5     2     3 1   
     6     3     4 1   
     7     3    40 1   
     8     3    41 1   
     9     4     5 1   
    10     4    42 1   
    11     4    43 1   
    12     5     6 1   
    13     6     7 1   
    14     6    44 1   
    15     6    45 1   
    16     7     8 1   
    17     7    46 1   
    18     7    47 1   
    19     8     9 1   
    20     9    10 1   
    21     9    48 1   
    22     9    49 1   
    23    10    11 1   
    24    10    50 1   
    25    10    51 1   
    26    11    12 1   
    27    12    13 1   
    28    12    52 1   
    29    12    53 1   
    30    13    14 1   
    31    13    54 1   
    32    13    55 1   
    33    14    15 1   
    34    15    16 1   
    35    15    56 1   
    36    15    57 1   
    37    16    17 1   
    38    16    58 1   
    39    16    59 1   
    40    17    18 1   
    41    18    19 2   
    42    18    20 1   
    43    20    21 1   
    44    20    60 1   
    45    20    61 1   
    46    21    22 1   
    47    21    62 1   
    48    21    63 1   
    49    22    23 1   
    50    22    64 1   
    51    22    65 1   
    52    23    24 1   
    53    23    66 1   
    54    23    67 1   
    55    24    25 1   
    56    24    68 1   
    57    24    69 1   
    58    25    26 1   
    59    25    70 1   
    60    25    71 1   
    61    26    27 1   
    62    26    72 1   
    63    26    73 1   
    64    27    28 1   
    65    27    74 1   
    66    27    75 1   
    67    28    29 1   
    68    28    76 1   
    69    28    77 1   
    70    29    30 1   
    71    29    78 1   
    72    29    79 1   
    73    30    31 1   
    74    30    80 1   
    75    30    81 1   
    76    31    32 1   
    77    31    82 1   
    78    31    83 1   
    79    32    33 1   
    80    32    84 1   
    81    32    85 1   
    82    33    34 1   
    83    33    86 1   
    84    33    87 1   
    85    34    35 1   
    86    34    88 1   
    87    34    89 1   
    88    35    36 1   
    89    35    90 1   
    90    35    91 1   
    91    36    92 1   
    92    36    93 1   
    93    36    94 1   
@<TRIPOS>SUBSTRUCTURE
     1 T80         1 TEMP              0 ****  ****    0 ROOT
