@<TRIPOS>MOLECULE
T80
   94    93     1     0     0
SMALL
No Charge or Current Charge


@<TRIPOS>ATOM
      1 C1          -7.0070    -1.3210   -10.6200 c3         1 T80       0.145900
      2 O2          -5.8720    -0.4380   -10.6060 os         1 T80      -0.443000
      3 C3          -4.6080    -1.0880   -10.8520 c3         1 T80       0.158600
      4 C4          -3.4770    -0.0320   -10.8020 c3         1 T80       0.161600
      5 O5          -3.2810     0.3830    -9.4350 os         1 T80      -0.435000
      6 C6          -2.2510     1.3760    -9.2550 c3         1 T80       0.161600
      7 C7          -2.1400     1.7220    -7.7510 c3         1 T80       0.161600
      8 O8          -1.5350     0.6130    -7.0560 os         1 T80      -0.436000
      9 C9          -1.3860     0.8090    -5.6360 c3         1 T80       0.161600
     10 C10         -0.7180    -0.4430    -5.0200 c3         1 T80       0.161600
     11 O11          0.6690    -0.4780    -5.4110 os         1 T80      -0.435000
     12 C12          1.4040    -1.6090    -4.9020 c3         1 T80       0.162600
     13 C13          2.8720    -1.5170    -5.3820 c3         1 T80       0.161600
     14 O14          3.5310    -0.4480    -4.6740 os         1 T80      -0.437000
     15 C15          4.9170    -0.2650    -5.0230 c3         1 T80       0.157600
     16 C16          5.4920     0.9020    -4.1880 c3         1 T80       0.167600
     17 O17          5.5860     0.4840    -2.8090 os         1 T80      -0.442100
     18 C18          6.0490     1.3910    -1.8930 c          1 T80       0.594100
     19 O19          6.3770     2.5390    -2.1600 o          1 T80      -0.492000
     20 C20          6.0430     0.8180    -0.4740 c3         1 T80      -0.138400
     21 C21          4.7160     1.1390     0.2530 c3         1 T80      -0.067400
     22 C22          4.6600     0.5720     1.6890 c3         1 T80      -0.076400
     23 C23          3.3310     0.8890     2.4100 c3         1 T80      -0.074400
     24 C24          3.2740     0.3260     3.8470 c3         1 T80      -0.074400
     25 C25          1.9440     0.6430     4.5660 c3         1 T80      -0.074400
     26 C26          1.8860     0.0830     6.0040 c3         1 T80      -0.074400
     27 C27          0.5540     0.3970     6.7210 c3         1 T80      -0.074400
     28 C28          0.4970    -0.1590     8.1600 c3         1 T80      -0.074400
     29 C29         -0.8360     0.1530     8.8760 c3         1 T80      -0.074400
     30 C30         -0.8930    -0.4010    10.3160 c3         1 T80      -0.074400
     31 C31         -2.2270    -0.0920    11.0290 c3         1 T80      -0.074400
     32 C32         -2.2850    -0.6450    12.4700 c3         1 T80      -0.074400
     33 C33         -3.6210    -0.3380    13.1820 c3         1 T80      -0.074400
     34 C34         -3.6770    -0.8890    14.6240 c3         1 T80      -0.075400
     35 C35         -5.0140    -0.5840    15.3350 c3         1 T80      -0.075400
     36 C36         -5.0710    -1.1330    16.7740 c3         1 T80      -0.089100
     37 H11         -6.9080    -2.0940    -9.8470 h1         1 T80       0.026700
     38 H12         -7.9290    -0.7590   -10.4270 h1         1 T80       0.026700
     39 H13         -7.1050    -1.8140   -11.5960 h1         1 T80       0.026700
     40 H31         -4.6090    -1.5570   -11.8440 h1         1 T80       0.028700
     41 H32         -4.4140    -1.8690   -10.1050 h1         1 T80       0.028700
     42 H41         -3.7420     0.8210   -11.4390 h1         1 T80       0.027200
     43 H42         -2.5560    -0.4810   -11.1970 h1         1 T80       0.027200
     44 H61         -2.5030     2.2890    -9.8110 h1         1 T80       0.028200
     45 H62         -1.2820     1.0110    -9.6210 h1         1 T80       0.028200
     46 H71         -3.1380     1.9430    -7.3500 h1         1 T80       0.028700
     47 H72         -1.5210     2.6220    -7.6400 h1         1 T80       0.028700
     48 H91         -2.3680     0.9530    -5.1670 h1         1 T80       0.028700
     49 H92         -0.7730     1.6950    -5.4220 h1         1 T80       0.028700
     50 H101        -1.2460    -1.3450    -5.3580 h1         1 T80       0.028200
     51 H102        -0.8030    -0.3880    -3.9270 h1         1 T80       0.028200
     52 H121         0.9670    -2.5440    -5.2760 h1         1 T80       0.028200
     53 H122         1.3780    -1.6350    -3.8040 h1         1 T80       0.028200
     54 H131         2.8950    -1.3460    -6.4660 h1         1 T80       0.029700
     55 H132         3.3710    -2.4730    -5.1760 h1         1 T80       0.029700
     56 H151         5.0130    -0.0200    -6.0890 h1         1 T80       0.030200
     57 H152         5.4970    -1.1760    -4.8270 h1         1 T80       0.030200
     58 H161         4.8400     1.7790    -4.2930 h1         1 T80       0.058700
     59 H162         6.4850     1.1630    -4.5780 h1         1 T80       0.058700
     60 H201         6.8770     1.2470     0.0920 hc         1 T80       0.071200
     61 H202         6.1320    -0.2740    -0.5290 hc         1 T80       0.071200
     62 H211         3.8790     0.7320    -0.3290 hc         1 T80       0.054200
     63 H212         4.5790     2.2270     0.2890 hc         1 T80       0.054200
     64 H221         5.4940     0.9830     2.2710 hc         1 T80       0.037200
     65 H222         4.7990    -0.5160     1.6530 hc         1 T80       0.037200
     66 H231         2.4980     0.4760     1.8280 hc         1 T80       0.040200
     67 H232         3.1910     1.9770     2.4440 hc         1 T80       0.040200
     68 H241         4.1060     0.7400     4.4300 hc         1 T80       0.036700
     69 H242         3.4150    -0.7610     3.8140 hc         1 T80       0.036700
     70 H251         1.1120     0.2280     3.9830 hc         1 T80       0.038200
     71 H252         1.8020     1.7310     4.5970 hc         1 T80       0.038200
     72 H261         2.7160     0.5000     6.5870 hc         1 T80       0.036700
     73 H262         2.0300    -1.0040     5.9730 hc         1 T80       0.036700
     74 H271        -0.2760    -0.0230     6.1390 hc         1 T80       0.037700
     75 H272         0.4080     1.4840     6.7480 hc         1 T80       0.037700
     76 H281         1.3260     0.2630     8.7430 hc         1 T80       0.036700
     77 H282         0.6450    -1.2460     8.1330 hc         1 T80       0.036700
     78 H291        -1.6640    -0.2700     8.2940 hc         1 T80       0.037700
     79 H292        -0.9850     1.2400     8.9020 hc         1 T80       0.037700
     80 H301        -0.0660     0.0240    10.8990 hc         1 T80       0.036700
     81 H302        -0.7420    -1.4870    10.2900 hc         1 T80       0.036700
     82 H311        -3.0540    -0.5170    10.4470 hc         1 T80       0.037700
     83 H312        -2.3790     0.9950    11.0550 hc         1 T80       0.037700
     84 H321        -1.4590    -0.2180    13.0530 hc         1 T80       0.036700
     85 H322        -2.1310    -1.7310    12.4450 hc         1 T80       0.036700
     86 H331        -4.4460    -0.7670    12.6000 hc         1 T80       0.037200
     87 H332        -3.7750     0.7480    13.2050 hc         1 T80       0.037200
     88 H341        -2.8530    -0.4590    15.2070 hc         1 T80       0.036700
     89 H342        -3.5210    -1.9750    14.6010 hc         1 T80       0.036700
     90 H351        -5.8400    -1.0150    14.7560 hc         1 T80       0.036700
     91 H352        -5.1730     0.5010    15.3610 hc         1 T80       0.036700
     92 H361        -6.0360    -0.8940    17.2360 hc         1 T80       0.031367
     93 H362        -4.9480    -2.2230    16.7790 hc         1 T80       0.031367
     94 H363        -4.2770    -0.6920    17.3890 hc         1 T80       0.031367
@<TRIPOS>BOND
     1     1     2 1   
     2     1    37 1   
     3     1    38 1   
     4     1    39 1   
     5     2     3 1   
     6     3     4 1   
     7     3    40 1   
     8     3    41 1   
     9     4     5 1   
    10     4    42 1   
    11     4    43 1   
    12     5     6 1   
    13     6     7 1   
    14     6    44 1   
    15     6    45 1   
    16     7     8 1   
    17     7    46 1   
    18     7    47 1   
    19     8     9 1   
    20     9    10 1   
    21     9    48 1   
    22     9    49 1   
    23    10    11 1   
    24    10    50 1   
    25    10    51 1   
    26    11    12 1   
    27    12    13 1   
    28    12    52 1   
    29    12    53 1   
    30    13    14 1   
    31    13    54 1   
    32    13    55 1   
    33    14    15 1   
    34    15    16 1   
    35    15    56 1   
    36    15    57 1   
    37    16    17 1   
    38    16    58 1   
    39    16    59 1   
    40    17    18 1   
    41    18    19 2   
    42    18    20 1   
    43    20    21 1   
    44    20    60 1   
    45    20    61 1   
    46    21    22 1   
    47    21    62 1   
    48    21    63 1   
    49    22    23 1   
    50    22    64 1   
    51    22    65 1   
    52    23    24 1   
    53    23    66 1   
    54    23    67 1   
    55    24    25 1   
    56    24    68 1   
    57    24    69 1   
    58    25    26 1   
    59    25    70 1   
    60    25    71 1   
    61    26    27 1   
    62    26    72 1   
    63    26    73 1   
    64    27    28 1   
    65    27    74 1   
    66    27    75 1   
    67    28    29 1   
    68    28    76 1   
    69    28    77 1   
    70    29    30 1   
    71    29    78 1   
    72    29    79 1   
    73    30    31 1   
    74    30    80 1   
    75    30    81 1   
    76    31    32 1   
    77    31    82 1   
    78    31    83 1   
    79    32    33 1   
    80    32    84 1   
    81    32    85 1   
    82    33    34 1   
    83    33    86 1   
    84    33    87 1   
    85    34    35 1   
    86    34    88 1   
    87    34    89 1   
    88    35    36 1   
    89    35    90 1   
    90    35    91 1   
    91    36    92 1   
    92    36    93 1   
    93    36    94 1   
@<TRIPOS>SUBSTRUCTURE
     1 T80         1 TEMP              0 ****  ****    0 ROOT
