@<TRIPOS>MOLECULE
T81
   31    32     1     0     0
SMALL
No Charge or Current Charge


@<TRIPOS>ATOM
      1 N1          -1.6620    -0.9180     0.2260 n3         1 T81      -0.728600
      2 C4          -0.5200    -1.6320     0.8410 c3         1 T81       0.236100
      3 C5           0.7600    -0.8480     0.7660 cc         1 T81      -0.210300
      4 C6           1.4820    -0.2980     1.7990 cd         1 T81      -0.137000
      5 C7           2.6520     0.3880     1.3740 cd         1 T81      -0.093000
      6 C8           2.8230     0.3600     0.0150 cc         1 T81      -0.188900
      7 C10         -3.1220     1.1420     0.1970 c6         1 T81       0.098500
      8 N           -4.3340     0.3390    -0.1580 n          1 T81      -0.417800
      9 C           -6.7300     0.1800    -0.9710 c3         1 T81      -0.177100
     10 O           -5.5700     2.2320    -0.5670 o          1 T81      -0.605100
     11 C1          -5.5060     1.0090    -0.5750 c          1 T81       0.608100
     12 C2          -4.0470    -1.0650    -0.5970 c6         1 T81       0.098500
     13 C3          -2.8790    -1.7640     0.1520 c6         1 T81       0.144800
     14 C9          -1.9950     0.3550     0.9190 c6         1 T81       0.144800
     15 S            1.5280    -0.5240    -0.7880 ss         1 T81       0.292000
     16 Br           4.2400     1.1490    -0.9480 br         1 T81      -0.042100
     17 H8          -0.7370    -1.8630     1.8940 h1         1 T81       0.048700
     18 H7          -0.3590    -2.5910     0.3290 h1         1 T81       0.048700
     19 H9           1.1860    -0.3770     2.8410 ha         1 T81       0.134000
     20 H10          3.3390     0.8830     2.0550 ha         1 T81       0.144000
     21 H14         -2.7080     1.5650    -0.7290 h1         1 T81       0.061950
     22 H13         -3.4130     1.9870     0.8350 h1         1 T81       0.061950
     23 H           -6.9350    -0.5590    -0.1890 hc         1 T81       0.060033
     24 H2          -7.6090     0.8020    -1.1770 hc         1 T81       0.060033
     25 H1          -6.4790    -0.4440    -1.8360 hc         1 T81       0.060033
     26 H4          -4.9400    -1.6920    -0.4760 h1         1 T81       0.061950
     27 H3          -3.8080    -1.0460    -1.6700 h1         1 T81       0.061950
     28 H6          -2.6580    -2.7130    -0.3590 h1         1 T81       0.043950
     29 H5          -3.2200    -2.0210     1.1660 h1         1 T81       0.043950
     30 H12         -2.3170     0.1490     1.9510 h1         1 T81       0.043950
     31 H11         -1.1120     1.0080     0.9850 h1         1 T81       0.043950
@<TRIPOS>BOND
     1     1     2 1   
     2     1    13 1   
     3     1    14 1   
     4     2     3 1   
     5     2    17 1   
     6     2    18 1   
     7     3     4 2   
     8     3    15 1   
     9     4     5 1   
    10     4    19 1   
    11     5     6 2   
    12     5    20 1   
    13     6    15 1   
    14     6    16 1   
    15     7     8 1   
    16     7    14 1   
    17     7    21 1   
    18     7    22 1   
    19     8    11 1   
    20     8    12 1   
    21     9    11 1   
    22     9    23 1   
    23     9    24 1   
    24     9    25 1   
    25    10    11 2   
    26    12    13 1   
    27    12    26 1   
    28    12    27 1   
    29    13    28 1   
    30    13    29 1   
    31    14    30 1   
    32    14    31 1   
@<TRIPOS>SUBSTRUCTURE
     1 T81         1 TEMP              0 ****  ****    0 ROOT
