@<TRIPOS>MOLECULE
T81
   31    32     1     0     0
SMALL
abcg2


@<TRIPOS>ATOM
      1 N1          -1.7200    -0.7630     0.2550 n3         1 T81      -0.728600
      2 C4          -0.7610    -1.3920     1.1380 c3         1 T81       0.236100
      3 C5           0.5810    -0.7510     1.0080 cc         1 T81      -0.210300
      4 C6           1.5290    -0.5130     1.9540 cd         1 T81      -0.137000
      5 C7           2.7200     0.0630     1.4280 cd         1 T81      -0.093000
      6 C8           2.6320     0.2480     0.0860 cc         1 T81      -0.188900
      7 C10         -3.0170     1.2320    -0.2940 c6         1 T81       0.098500
      8 N           -4.1750     0.3970    -0.5520 n          1 T81      -0.417800
      9 C           -6.5650    -0.1200    -0.6070 c3         1 T81      -0.177100
     10 O           -5.6600     1.9870     0.0410 o          1 T81      -0.605100
     11 C1          -5.4320     0.8450    -0.3430 c          1 T81       0.608100
     12 C2          -3.8160    -0.9410    -0.9800 c6         1 T81       0.098500
     13 C3          -2.8930    -1.5900     0.0380 c6         1 T81       0.144800
     14 C9          -2.1000     0.5610     0.7130 c6         1 T81       0.144800
     15 S            1.1180    -0.2590    -0.5560 ss         1 T81       0.292000
     16 BR           3.9220     0.9920    -1.0300 br         1 T81      -0.042100
     17 H8          -1.0650    -1.3720     2.1960 h1         1 T81       0.048700
     18 H7          -0.6820    -2.4460     0.8570 h1         1 T81       0.048700
     19 H9           1.3880    -0.7410     3.0020 ha         1 T81       0.134000
     20 H10          3.5820     0.3290     2.0240 ha         1 T81       0.144000
     21 H14         -2.4740     1.3920    -1.2320 h1         1 T81       0.061950
     22 H13         -3.3380     2.2000     0.0780 h1         1 T81       0.061950
     23 H           -6.5050    -0.9990     0.0370 hc         1 T81       0.060033
     24 H2          -7.5090     0.3820    -0.4130 hc         1 T81       0.060033
     25 H1          -6.5680    -0.4710    -1.6390 hc         1 T81       0.060033
     26 H4          -4.6990    -1.5600    -1.1120 h1         1 T81       0.061950
     27 H3          -3.3070    -0.8830    -1.9470 h1         1 T81       0.061950
     28 H6          -2.5770    -2.5620    -0.3450 h1         1 T81       0.043950
     29 H5          -3.4510    -1.7690     0.9710 h1         1 T81       0.043950
     30 H12         -2.6030     0.5190     1.6940 h1         1 T81       0.043950
     31 H11         -1.2060     1.1750     0.8330 h1         1 T81       0.043950
@<TRIPOS>BOND
     1     1     2 1   
     2     1    13 1   
     3     1    14 1   
     4     2     3 1   
     5     2    17 1   
     6     2    18 1   
     7     3     4 2   
     8     3    15 1   
     9     4     5 1   
    10     4    19 1   
    11     5     6 2   
    12     5    20 1   
    13     6    15 1   
    14     6    16 1   
    15     7     8 1   
    16     7    14 1   
    17     7    21 1   
    18     7    22 1   
    19     8    11 1   
    20     8    12 1   
    21     9    11 1   
    22     9    23 1   
    23     9    24 1   
    24     9    25 1   
    25    10    11 2   
    26    12    13 1   
    27    12    26 1   
    28    12    27 1   
    29    13    28 1   
    30    13    29 1   
    31    14    30 1   
    32    14    31 1   
@<TRIPOS>SUBSTRUCTURE
     1 T81         1 TEMP              0 ****  ****    0 ROOT
