@<TRIPOS>MOLECULE
T82
   38    39     1     0     0
SMALL
No Charge or Current Charge


@<TRIPOS>ATOM
      1 C11         15.5310     5.0350    18.9560 ca         1 T82      -0.214000
      2 C12         15.8680     4.0480    19.8940 ca         1 T82       0.176100
      3 C14         14.8540     3.2700    20.4860 ca         1 T82      -0.069900
      4 C16         13.5090     3.4820    20.1360 ca         1 T82      -0.009000
      5 C17          7.3630     4.9990    16.1600 ca         1 T82      -0.084300
      6 C18          7.4000     4.3490    14.9070 ca         1 T82      -0.094000
      7 C19          7.3350     5.0930    13.7150 ca         1 T82      -0.099000
      8 C20          7.2360     6.4930    13.7640 ca         1 T82      -0.097000
      9 C21          7.2040     7.1470    15.0060 ca         1 T82       0.118000
     10 C23          7.2690     6.4060    16.1970 ca         1 T82      -0.102000
     11 C10         14.1870     5.2480    18.6050 ca         1 T82      -0.041000
     12 C02          6.4670     3.0020    17.4960 c3         1 T82       0.170800
     13 C03          7.4390     4.2040    17.4710 c3         1 T82      -0.099400
     14 C04          8.8870     3.7580    17.7490 c          1 T82       0.632100
     15 C09         13.1650     4.4750    19.1910 ca         1 T82      -0.167900
     16 N06          9.4670     4.3100    18.8910 ns         1 T82      -0.274900
     17 N07         10.7620     4.0440    19.3070 n2         1 T82      -0.414300
     18 O05          9.4940     2.9900    17.0080 o          1 T82      -0.554100
     19 O13         17.1780     3.8520    20.2250 oh         1 T82      -0.509100
     20 Br          15.2780     1.9100    21.7740 br         1 T82      -0.071100
     21 Cl           7.0850     8.9010    15.0700 cl         1 T82      -0.202000
     22 H1          16.3050     5.6420    18.4920 ha         1 T82       0.117000
     23 H2          12.7380     2.8710    20.6030 ha         1 T82       0.155000
     24 H3           7.4870     3.2660    14.8490 ha         1 T82       0.135000
     25 H4           7.3650     4.5830    12.7540 ha         1 T82       0.123000
     26 H5           7.1860     7.0700    12.8440 ha         1 T82       0.132000
     27 H6           7.2440     6.9320    17.1490 ha         1 T82       0.126000
     28 H7          13.9390     6.0170    17.8750 ha         1 T82       0.114000
     29 H8           5.4840     3.3410    17.1380 h1         1 T82       0.041700
     30 H9           6.8140     2.2030    16.8260 h1         1 T82       0.041700
     31 H10          7.1300     4.8690    18.2860 hc         1 T82       0.076700
     32 H13          5.5650     1.7250    18.8320 hn         1 T82       0.406500
     33 H14          7.1310     1.9370    19.1330 hn         1 T82       0.406500
     34 H16          8.8700     4.9310    19.4300 hn         1 T82       0.307500
     35 H18         17.7230     4.4840    19.7120 ho         1 T82       0.471000
     36 C08         11.7450     4.7240    18.7990 ce         1 T82       0.379800
     37 N01          6.2880     2.4560    18.8580 n8         1 T82      -1.010200
     38 H11         11.5690     5.5080    18.0590 h4         1 T82      -0.016200
@<TRIPOS>BOND
     1     1     2 ar  
     2     1    11 ar  
     3     1    22 1   
     4     2     3 ar  
     5     2    19 1   
     6     3     4 ar  
     7     3    20 1   
     8     4    15 ar  
     9     4    23 1   
    10     5     6 ar  
    11     5    10 ar  
    12     5    13 1   
    13     6     7 ar  
    14     6    24 1   
    15     7     8 ar  
    16     7    25 1   
    17     8     9 ar  
    18     8    26 1   
    19     9    10 ar  
    20     9    21 1   
    21    10    27 1   
    22    11    15 ar  
    23    11    28 1   
    24    12    13 1   
    25    12    29 1   
    26    12    30 1   
    27    12    37 1   
    28    13    14 1   
    29    13    31 1   
    30    14    16 1   
    31    14    18 2   
    32    15    36 1   
    33    16    17 1   
    34    16    34 1   
    35    17    36 2   
    36    19    35 1   
    37    32    37 1   
    38    33    37 1   
    39    36    38 1   
@<TRIPOS>SUBSTRUCTURE
     1 T82         1 TEMP              0 ****  ****    0 ROOT
