@<TRIPOS>MOLECULE
T82
   38    39     1     0     0
SMALL
bcc


@<TRIPOS>ATOM
      1 C11         15.4300     5.2900    19.8220 ca         1 T82      -0.232000
      2 C12         15.8710     3.9700    19.7680 ca         1 T82       0.176100
      3 C14         14.9440     2.9760    19.4340 ca         1 T82      -0.069900
      4 C16         13.6300     3.2870    19.1520 ca         1 T82      -0.027000
      5 C17          7.4170     4.9050    16.2070 ca         1 T82      -0.084300
      6 C18          7.7070     4.1270    15.0890 ca         1 T82      -0.112000
      7 C19          7.6710     4.6820    13.8190 ca         1 T82      -0.117000
      8 C20          7.3440     6.0190    13.6380 ca         1 T82      -0.115000
      9 C21          7.0560     6.7850    14.7550 ca         1 T82       0.026400
     10 C23          7.0900     6.2460    16.0320 ca         1 T82      -0.120000
     11 C10         14.1120     5.6030    19.5440 ca         1 T82      -0.059000
     12 C02          6.2630     3.3160    17.7710 c3         1 T82       0.170800
     13 C03          7.4130     4.3090    17.5970 c3         1 T82      -0.099400
     14 C04          8.7590     3.6550    17.8750 c          1 T82       0.699100
     15 C09         13.1940     4.6130    19.2020 ca         1 T82      -0.167900
     16 N06          9.7070     4.5330    18.2970 ns         1 T82      -0.341900
     17 N07         10.9620     4.1180    18.5400 n2         1 T82      -0.414300
     18 O05          8.9740     2.4710    17.7090 o          1 T82      -0.554100
     19 O13         17.1310     3.6060    20.0230 oh         1 T82      -0.470100
     20 BR          15.5160     1.1830    19.3760 br         1 T82      -0.071100
     21 CL           6.6430     8.4570    14.5590 cl         1 T82      -0.110400
     22 H1          16.1290     6.0770    20.0820 ha         1 T82       0.135000
     23 H2          12.9290     2.5030    18.8930 ha         1 T82       0.173000
     24 H3           7.9650     3.0820    15.2050 ha         1 T82       0.153000
     25 H4           7.9000     4.0710    12.9560 ha         1 T82       0.141000
     26 H5           7.3160     6.4530    12.6480 ha         1 T82       0.150000
     27 H6           6.8600     6.8650    16.8900 ha         1 T82       0.144000
     28 H7          13.7950     6.6370    19.5940 ha         1 T82       0.132000
     29 H8           5.3400     3.8540    17.5490 h1         1 T82       0.041700
     30 H9           6.3480     2.5230    17.0180 h1         1 T82       0.041700
     31 H10          7.2610     5.1160    18.3200 hc         1 T82       0.076700
     32 H13          5.2920     2.4010    19.2950 hn         1 T82       0.351300
     33 H14          6.8760     2.0990    19.2790 hn         1 T82       0.351300
     34 H16          9.4670     5.5130    18.4160 hn         1 T82       0.307500
     35 H18         17.6770     4.3750    20.2270 ho         1 T82       0.432000
     36 C08         11.8150     4.9840    18.9090 ce         1 T82       0.379800
     37 N01          6.1930     2.8320    19.1380 n8         1 T82      -0.899800
     38 H11         11.5620     6.0420    19.0230 h4         1 T82      -0.016200
@<TRIPOS>BOND
     1     1     2 ar  
     2     1    11 ar  
     3     1    22 1   
     4     2     3 ar  
     5     2    19 1   
     6     3     4 ar  
     7     3    20 1   
     8     4    15 ar  
     9     4    23 1   
    10     5     6 ar  
    11     5    10 ar  
    12     5    13 1   
    13     6     7 ar  
    14     6    24 1   
    15     7     8 ar  
    16     7    25 1   
    17     8     9 ar  
    18     8    26 1   
    19     9    10 ar  
    20     9    21 1   
    21    10    27 1   
    22    11    15 ar  
    23    11    28 1   
    24    12    13 1   
    25    12    29 1   
    26    12    30 1   
    27    12    37 1   
    28    13    14 1   
    29    13    31 1   
    30    14    16 1   
    31    14    18 2   
    32    15    36 1   
    33    16    17 1   
    34    16    34 1   
    35    17    36 2   
    36    19    35 1   
    37    32    37 1   
    38    33    37 1   
    39    36    38 1   
@<TRIPOS>SUBSTRUCTURE
     1 T82         1 TEMP              0 ****  ****    0 ROOT
