@<TRIPOS>MOLECULE
T83
   22    23     1     0     0
SMALL
No Charge or Current Charge


@<TRIPOS>ATOM
      1 CAA         -7.9280    17.5940   -18.4920 c3         1 T83       0.147900
      2 CAD         -4.0110    21.6250   -15.0850 cc         1 T83      -0.329200
      3 CAE         -4.5730    20.5830   -15.7830 cd         1 T83      -0.051200
      4 CAF         -7.9440    22.0860   -16.4700 ca         1 T83      -0.230000
      5 CAG         -6.5660    19.6860   -16.9960 ca         1 T83      -0.050000
      6 CAJ         -8.5770    21.0600   -17.1900 ca         1 T83       0.181100
      7 CAK         -7.8930    19.8480   -17.4600 ca         1 T83       0.048100
      8 CAL         -4.7480    22.8710   -14.8210 c          1 T83       0.668300
      9 CAM         -5.9390    20.7200   -16.2750 ca         1 T83      -0.184800
     10 CAN         -6.6310    21.9150   -16.0150 ca         1 T83       0.208100
     11 OAB         -4.2560    23.8020   -14.2010 o          1 T83      -0.483000
     12 OAH         -8.5470    18.8540   -18.1740 os         1 T83      -0.344100
     13 OAI         -6.0280    22.9310   -15.3120 os         1 T83      -0.343200
     14 H1          -8.6230    16.9620   -19.0590 h1         1 T83       0.039033
     15 H2          -7.0300    17.7440   -19.1040 h1         1 T83       0.039033
     16 H3          -7.6480    17.0550   -17.5780 h1         1 T83       0.039033
     17 H4          -3.0010    21.5860   -14.6940 ha         1 T83       0.216000
     18 H5          -4.0030    19.6730   -15.9630 ha         1 T83       0.192000
     19 H6          -8.4610    23.0180   -16.2580 ha         1 T83       0.143000
     20 H7          -6.0130    18.7700   -17.1860 ha         1 T83       0.130000
     21 H8         -10.1570    22.1390   -17.3420 ho         1 T83       0.470000
     22 OAC         -9.8610    21.2480   -17.6250 oh         1 T83      -0.506100
@<TRIPOS>BOND
     1     1    12 1   
     2     1    14 1   
     3     1    15 1   
     4     1    16 1   
     5     2     3 2   
     6     2     8 1   
     7     2    17 1   
     8     3     9 1   
     9     3    18 1   
    10     4     6 ar  
    11     4    10 ar  
    12     4    19 1   
    13     5     7 ar  
    14     5     9 ar  
    15     5    20 1   
    16     6     7 ar  
    17     6    22 1   
    18     7    12 1   
    19     8    11 2   
    20     8    13 1   
    21     9    10 ar  
    22    10    13 1   
    23    21    22 1   
@<TRIPOS>SUBSTRUCTURE
     1 T83         1 TEMP              0 ****  ****    0 ROOT
