@<TRIPOS>MOLECULE
T83
   22    23     1     0     0
SMALL
abcg2


@<TRIPOS>ATOM
      1 CAA         -8.2430    17.6860   -18.2230 c3         1 T83       0.147900
      2 CAD         -3.9600    21.7330   -15.1340 cc         1 T83      -0.329200
      3 CAE         -4.3960    20.7970   -16.0070 cd         1 T83      -0.051200
      4 CAF         -7.9260    21.8790   -16.3750 ca         1 T83      -0.230000
      5 CAG         -6.2730    19.8590   -17.3690 ca         1 T83      -0.050000
      6 CAJ         -8.4280    20.9380   -17.2660 ca         1 T83       0.181100
      7 CAK         -7.5900    19.9180   -17.7700 ca         1 T83       0.048100
      8 CAL         -4.8460    22.7570   -14.6350 c          1 T83       0.668300
      9 CAM         -5.7480    20.7940   -16.4630 ca         1 T83      -0.184800
     10 CAN         -6.6010    21.7950   -15.9810 ca         1 T83       0.208100
     11 OAB         -4.5620    23.6370   -13.8460 o          1 T83      -0.483000
     12 OAH         -8.1120    19.0400   -18.6840 os         1 T83      -0.344100
     13 OAI         -6.1470    22.7340   -15.0980 os         1 T83      -0.343200
     14 H1          -8.6850    17.1250   -19.0430 h1         1 T83       0.039033
     15 H2          -7.2680    17.2610   -17.9730 h1         1 T83       0.039033
     16 H3          -8.8970    17.6440   -17.3490 h1         1 T83       0.039033
     17 H4          -2.9430    21.7590   -14.7720 ha         1 T83       0.216000
     18 H5          -3.7200    20.0330   -16.3730 ha         1 T83       0.192000
     19 H6          -8.5600    22.6650   -15.9840 ha         1 T83       0.143000
     20 H7          -5.6300    19.0810   -17.7620 ha         1 T83       0.130000
     21 H8         -10.1940    21.6830   -17.2830 ho         1 T83       0.470000
     22 OAC         -9.7100    20.9500   -17.6920 oh         1 T83      -0.506100
@<TRIPOS>BOND
     1     1    12 1   
     2     1    14 1   
     3     1    15 1   
     4     1    16 1   
     5     2     3 2   
     6     2     8 1   
     7     2    17 1   
     8     3     9 1   
     9     3    18 1   
    10     4     6 ar  
    11     4    10 ar  
    12     4    19 1   
    13     5     7 ar  
    14     5     9 ar  
    15     5    20 1   
    16     6     7 ar  
    17     6    22 1   
    18     7    12 1   
    19     8    11 2   
    20     8    13 1   
    21     9    10 ar  
    22    10    13 1   
    23    21    22 1   
@<TRIPOS>SUBSTRUCTURE
     1 T83         1 TEMP              0 ****  ****    0 ROOT
