@<TRIPOS>MOLECULE
T84
   31    32     1     0     0
SMALL
bcc


@<TRIPOS>ATOM
      1 N1          -0.0690     0.8730     0.1670 n3         1 T84      -0.718600
      2 C4           1.0890     1.2130     0.9700 c3         1 T84       0.235100
      3 C5           2.3370     0.5700     0.4450 cc         1 T84      -0.108300
      4 C6           2.7430     0.6390    -0.9220 cc         1 T84      -0.127000
      5 C7           3.9160    -0.0060    -1.1590 cd         1 T84      -0.121100
      6 C8           3.2230    -0.1360     1.2010 cd         1 T84      -0.117100
      7 C10         -1.5680    -0.8660    -0.6620 c6         1 T84       0.098500
      8 N           -2.7050    -0.0080    -0.3960 n          1 T84      -0.484800
      9 C           -4.2000    -1.9230    -0.1080 c3         1 T84      -0.176100
     10 O           -4.8850     0.3530     0.0580 o          1 T84      -0.608100
     11 C1          -3.9630    -0.4290    -0.1410 c          1 T84       0.675100
     12 C2          -2.3710     1.4030    -0.4460 c6         1 T84       0.098500
     13 C3          -1.2120     1.7040     0.4890 c6         1 T84       0.145800
     14 C9          -0.4180    -0.5300     0.2730 c6         1 T84       0.145800
     15 S            4.5480    -0.7080     0.2740 ss         1 T84      -0.098800
     16 H7           1.2060     2.3010     0.9350 h1         1 T84       0.041200
     17 H8           0.9550     0.9500     2.0320 h1         1 T84       0.041200
     18 H9           2.1740     1.1460    -1.6890 ha         1 T84       0.162000
     19 H10          4.4430    -0.1060    -2.0950 h4         1 T84       0.168000
     20 H11          3.1620    -0.3510     2.2570 h4         1 T84       0.166000
     21 H14         -1.8330    -1.9120    -0.5400 h1         1 T84       0.059200
     22 H15         -1.2450    -0.7270    -1.6990 h1         1 T84       0.059200
     23 H           -5.2510    -2.1090     0.0980 hc         1 T84       0.059367
     24 H2          -3.9460    -2.3950    -1.0580 hc         1 T84       0.059367
     25 H1          -3.6070    -2.4090     0.6670 hc         1 T84       0.059367
     26 H3          -2.0910     1.6700    -1.4700 h1         1 T84       0.059200
     27 H4          -3.2390     1.9960    -0.1690 h1         1 T84       0.059200
     28 H5          -1.5440     1.5650     1.5320 h1         1 T84       0.041950
     29 H6          -0.9340     2.7540     0.3740 h1         1 T84       0.041950
     30 H12          0.4420    -1.1430    -0.0030 h1         1 T84       0.041950
     31 H13         -0.6970    -0.8020     1.3060 h1         1 T84       0.041950
@<TRIPOS>BOND
     1     1     2 1   
     2     1    13 1   
     3     1    14 1   
     4     2     3 1   
     5     2    16 1   
     6     2    17 1   
     7     3     4 1   
     8     3     6 2   
     9     4     5 2   
    10     4    18 1   
    11     5    15 1   
    12     5    19 1   
    13     6    15 1   
    14     6    20 1   
    15     7     8 1   
    16     7    14 1   
    17     7    21 1   
    18     7    22 1   
    19     8    11 1   
    20     8    12 1   
    21     9    11 1   
    22     9    23 1   
    23     9    24 1   
    24     9    25 1   
    25    10    11 2   
    26    12    13 1   
    27    12    26 1   
    28    12    27 1   
    29    13    28 1   
    30    13    29 1   
    31    14    30 1   
    32    14    31 1   
@<TRIPOS>SUBSTRUCTURE
     1 T84         1 TEMP              0 ****  ****    0 ROOT
