@<TRIPOS>MOLECULE
T84
   31    32     1     0     0
SMALL
No Charge or Current Charge


@<TRIPOS>ATOM
      1 N1          -0.0260     0.9310     0.2220 n3         1 T84      -0.718600
      2 C4           1.2480     1.3840     0.8310 c3         1 T84       0.235100
      3 C5           2.4560     0.6270     0.3280 cc         1 T84      -0.108300
      4 C6           2.8620     0.6940    -1.0310 cc         1 T84      -0.109000
      5 C7           3.9740    -0.0480    -1.3310 cd         1 T84      -0.248000
      6 C8           3.2800    -0.1820     1.0740 cd         1 T84      -0.244000
      7 C10         -1.6260    -0.9830    -0.1960 c6         1 T84       0.098500
      8 N           -2.8130    -0.0750    -0.0790 n          1 T84      -0.417800
      9 C           -4.4110    -2.0030    -0.4830 c3         1 T84      -0.176100
     10 O           -4.9730     0.3050    -0.7620 o          1 T84      -0.608100
     11 C1          -4.0980    -0.5040    -0.4790 c          1 T84       0.608100
     12 C2          -2.4860     1.3850    -0.1050 c6         1 T84       0.098500
     13 C3          -1.1730     1.7820     0.6230 c6         1 T84       0.145800
     14 C9          -0.3420    -0.4890     0.5270 c6         1 T84       0.145800
     15 S            4.5840    -0.8860     0.1020 ss         1 T84       0.191000
     16 H7           1.4060     2.4490     0.6130 h1         1 T84       0.041200
     17 H8           1.2000     1.2860     1.9250 h1         1 T84       0.041200
     18 H9           2.3180     1.2860    -1.7620 ha         1 T84       0.144000
     19 H10          4.4720    -0.1610    -2.2860 h4         1 T84       0.150000
     20 H11          3.2080    -0.4150     2.1290 h4         1 T84       0.148000
     21 H14         -1.8670    -1.9770     0.2020 h1         1 T84       0.059200
     22 H15         -1.3950    -1.1080    -1.2630 h1         1 T84       0.059200
     23 H           -5.4620    -2.2110    -0.7090 hc         1 T84       0.059367
     24 H2          -3.7480    -2.5080    -1.1940 hc         1 T84       0.059367
     25 H1          -4.1130    -2.4370     0.4780 hc         1 T84       0.059367
     26 H3          -2.4090     1.7000    -1.1550 h1         1 T84       0.059200
     27 H4          -3.3130     1.9550     0.3420 h1         1 T84       0.059200
     28 H5          -1.3380     1.7050     1.7080 h1         1 T84       0.041950
     29 H6          -0.9620     2.8390     0.4070 h1         1 T84       0.041950
     30 H12          0.4880    -1.1470     0.2330 h1         1 T84       0.041950
     31 H13         -0.4810    -0.6180     1.6110 h1         1 T84       0.041950
@<TRIPOS>BOND
     1     1     2 1   
     2     1    13 1   
     3     1    14 1   
     4     2     3 1   
     5     2    16 1   
     6     2    17 1   
     7     3     4 1   
     8     3     6 2   
     9     4     5 2   
    10     4    18 1   
    11     5    15 1   
    12     5    19 1   
    13     6    15 1   
    14     6    20 1   
    15     7     8 1   
    16     7    14 1   
    17     7    21 1   
    18     7    22 1   
    19     8    11 1   
    20     8    12 1   
    21     9    11 1   
    22     9    23 1   
    23     9    24 1   
    24     9    25 1   
    25    10    11 2   
    26    12    13 1   
    27    12    26 1   
    28    12    27 1   
    29    13    28 1   
    30    13    29 1   
    31    14    30 1   
    32    14    31 1   
@<TRIPOS>SUBSTRUCTURE
     1 T84         1 TEMP              0 ****  ****    0 ROOT
