@<TRIPOS>MOLECULE
T85
   31    33     1     0     0
SMALL
abcg2


@<TRIPOS>ATOM
      1 C1         -21.2100   -21.3340    -3.9720 c          1 T85       0.577500
      2 C10        -22.1070   -23.6690     1.4720 ca         1 T85      -0.082000
      3 C11        -21.1400   -24.6570     1.5950 ca         1 T85      -0.115000
      4 C12        -21.5080   -25.9640     1.9020 ca         1 T85      -0.097000
      5 C13        -22.8510   -26.2760     2.0930 ca         1 T85      -0.115000
      6 C14        -23.8220   -25.2900     1.9700 ca         1 T85      -0.082000
      7 C15        -23.1530   -20.5330    -0.8080 ca         1 T85      -0.109000
      8 C16        -22.3500   -20.3670    -1.9280 ca         1 T85       0.248000
      9 C2         -22.0640   -21.4460    -2.7730 ca         1 T85      -0.173600
     10 C3         -22.6210   -22.6950    -2.4650 ca         1 T85      -0.045000
     11 C4         -23.4310   -22.8740    -1.3640 ca         1 T85      -0.106000
     12 C5         -23.6880   -21.7870    -0.5290 ca         1 T85       0.030800
     13 C6         -25.6060   -21.1320     0.8960 cc         1 T85      -0.212000
     14 C7         -26.2050   -21.6920     1.9850 cd         1 T85       0.241900
     15 C8         -24.4990   -22.9480     1.5500 cc         1 T85       0.478000
     16 C9         -23.4600   -23.9770     1.6510 ca         1 T85      -0.134500
     17 N1         -24.5180   -21.9390     0.6080 na         1 T85      -0.093300
     18 N2         -25.5120   -22.8130     2.3850 nd         1 T85      -0.659000
     19 H1         -20.8040   -20.3320    -4.1800 h4         1 T85       0.012200
     20 H5         -20.0960   -24.4050     1.4570 ha         1 T85       0.117500
     21 H6         -20.7530   -26.7340     1.9950 ha         1 T85       0.116000
     22 H7         -23.1450   -27.2900     2.3320 ha         1 T85       0.117500
     23 H8         -24.8670   -25.5320     2.1090 ha         1 T85       0.123500
     24 H9         -23.3550   -19.7070    -0.1420 ha         1 T85       0.143000
     25 H10        -22.4090   -23.5220    -3.1280 ha         1 T85       0.145000
     26 H11        -23.8680   -23.8380    -1.1500 ha         1 T85       0.144000
     27 H12        -25.8540   -20.2830     0.2840 h4         1 T85       0.162000
     28 H13        -27.0890   -21.3560     2.5020 h4         1 T85       0.044100
     29 O1         -20.9510   -22.2660    -4.7070 o          1 T85      -0.506100
     30 I1         -21.5820   -18.4180    -2.2560 i          1 T85      -0.293000
     31 H4         -21.8090   -22.6530     1.2490 ha         1 T85       0.123500
@<TRIPOS>BOND
     1     1     9 1   
     2     1    19 1   
     3     1    29 2   
     4     2     3 ar  
     5     2    16 ar  
     6     2    31 1   
     7     3     4 ar  
     8     3    20 1   
     9     4     5 ar  
    10     4    21 1   
    11     5     6 ar  
    12     5    22 1   
    13     6    16 ar  
    14     6    23 1   
    15     7     8 ar  
    16     7    12 ar  
    17     7    24 1   
    18     8     9 ar  
    19     8    30 1   
    20     9    10 ar  
    21    10    11 ar  
    22    10    25 1   
    23    11    12 ar  
    24    11    26 1   
    25    12    17 1   
    26    13    14 2   
    27    13    17 1   
    28    13    27 1   
    29    14    18 1   
    30    14    28 1   
    31    15    16 1   
    32    15    17 1   
    33    15    18 2   
@<TRIPOS>SUBSTRUCTURE
     1 T85         1 TEMP              0 ****  ****    0 ROOT
