@<TRIPOS>MOLECULE
T85
   31    33     1     0     0
SMALL
No Charge or Current Charge


@<TRIPOS>ATOM
      1 C1         -21.2000   -21.2630    -3.9980 c          1 T85       0.577500
      2 C10        -22.1020   -23.7210     1.3500 ca         1 T85      -0.082000
      3 C11        -21.1170   -24.7120     1.5070 ca         1 T85      -0.115000
      4 C12        -21.4690   -25.9900     1.9670 ca         1 T85      -0.097000
      5 C13        -22.8070   -26.2730     2.2830 ca         1 T85      -0.115000
      6 C14        -23.7930   -25.2840     2.1270 ca         1 T85      -0.082000
      7 C15        -23.0790   -20.5170    -0.7450 ca         1 T85      -0.109000
      8 C16        -22.2640   -20.3470    -1.8760 ca         1 T85       0.248000
      9 C2         -22.0680   -21.4160    -2.7790 ca         1 T85      -0.173600
     10 C3         -22.7090   -22.6500    -2.5250 ca         1 T85      -0.045000
     11 C4         -23.5230   -22.8130    -1.3920 ca         1 T85      -0.106000
     12 C5         -23.7060   -21.7490    -0.4890 ca         1 T85       0.030800
     13 C6         -25.6410   -21.1400     0.8440 cc         1 T85      -0.212000
     14 C7         -26.2860   -21.7790     1.8730 cd         1 T85       0.241900
     15 C8         -24.5030   -22.9680     1.5130 cc         1 T85       0.478000
     16 C9         -23.4600   -24.0030     1.6290 ca         1 T85      -0.134500
     17 N1         -24.5150   -21.8960     0.6380 na         1 T85      -0.093300
     18 N2         -25.5880   -22.9070     2.2780 nd         1 T85      -0.659000
     19 H1         -20.7150   -20.2780    -4.1610 h4         1 T85       0.012200
     20 H5         -20.0780   -24.4840     1.2810 ha         1 T85       0.117500
     21 H6         -20.7060   -26.7560     2.0900 ha         1 T85       0.116000
     22 H7         -23.0810   -27.2590     2.6530 ha         1 T85       0.117500
     23 H8         -24.8250   -25.5200     2.3810 ha         1 T85       0.123500
     24 H9         -23.2160   -19.6850    -0.0600 ha         1 T85       0.143000
     25 H10        -22.5800   -23.4890    -3.2070 ha         1 T85       0.145000
     26 H11        -24.0130   -23.7690    -1.2210 ha         1 T85       0.144000
     27 H12        -25.9040   -20.2640     0.2640 h4         1 T85       0.162000
     28 H13        -27.2250   -21.5000     2.3360 h4         1 T85       0.044100
     29 O1         -21.0130   -22.1730    -4.8010 o          1 T85      -0.506100
     30 I1         -21.3420   -18.3950    -2.1510 i          1 T85      -0.293000
     31 H4         -21.7960   -22.7310     1.0230 ha         1 T85       0.123500
@<TRIPOS>BOND
     1     1     9 1   
     2     1    19 1   
     3     1    29 2   
     4     2     3 ar  
     5     2    16 ar  
     6     2    31 1   
     7     3     4 ar  
     8     3    20 1   
     9     4     5 ar  
    10     4    21 1   
    11     5     6 ar  
    12     5    22 1   
    13     6    16 ar  
    14     6    23 1   
    15     7     8 ar  
    16     7    12 ar  
    17     7    24 1   
    18     8     9 ar  
    19     8    30 1   
    20     9    10 ar  
    21    10    11 ar  
    22    10    25 1   
    23    11    12 ar  
    24    11    26 1   
    25    12    17 1   
    26    13    14 2   
    27    13    17 1   
    28    13    27 1   
    29    14    18 1   
    30    14    28 1   
    31    15    16 1   
    32    15    17 1   
    33    15    18 2   
@<TRIPOS>SUBSTRUCTURE
     1 T85         1 TEMP              0 ****  ****    0 ROOT
