@<TRIPOS>MOLECULE
T86
   35    36     1     0     0
SMALL
No Charge or Current Charge


@<TRIPOS>ATOM
      1 Cl1          6.6500    -1.0240    -0.0370 cl         1 T86      -0.184000
      2 Cl2          2.8290     2.7670     0.6110 cl         1 T86      -0.161000
      3 C1           2.2040     0.1340    -0.1440 ca         1 T86      -0.148600
      4 C2           3.2020     1.0970     0.1750 ca         1 T86       0.167000
      5 C3           4.5580     0.7310     0.2060 ca         1 T86      -0.108000
      6 C4           4.9480    -0.5830    -0.0790 ca         1 T86       0.140000
      7 C5           3.9820    -1.5450    -0.3930 ca         1 T86      -0.110000
      8 C6           2.6220    -1.1940    -0.4260 ca         1 T86      -0.073000
      9 N13         -0.1370    -0.5850    -0.0170 ns         1 T86      -0.144000
     10 C14         -4.3590    -1.0660     0.0220 ca         1 T86      -0.058000
     11 C15         -3.8340     0.2450    -0.0350 ca         1 T86      -0.176600
     12 C16         -2.4300     0.4130    -0.0470 ca         1 T86      -0.028000
     13 C17         -1.5590    -0.7010    -0.0090 ca         1 T86      -0.074000
     14 C18         -2.1030    -2.0000     0.0530 ca         1 T86       0.133100
     15 C19         -3.5020    -2.1760     0.0670 ca         1 T86      -0.194000
     16 O23          0.3300     1.6200    -0.4490 o          1 T86      -0.544100
     17 O24         -1.2290    -3.0720     0.0960 os         1 T86      -0.348100
     18 C25         -1.6820    -4.4370     0.1590 c3         1 T86       0.149900
     19 N27         -6.1000     1.2420    -0.1240 ns         1 T86      -0.378400
     20 O28         -7.0280     2.3170    -0.4150 oh         1 T86      -0.433100
     21 O29         -4.2690     2.6070    -0.0570 o          1 T86      -0.551100
     22 H1           5.3110     1.4720     0.4590 ha         1 T86       0.148000
     23 H2           4.2880    -2.5640    -0.6170 ha         1 T86       0.137000
     24 H3           1.9050    -1.9680    -0.6950 ha         1 T86       0.128000
     25 H4           0.3320    -1.4640     0.1550 hn         1 T86       0.168000
     26 H5          -5.4310    -1.2470     0.0420 ha         1 T86       0.115000
     27 H6          -2.0300     1.4220    -0.0780 ha         1 T86       0.159000
     28 H7          -3.9440    -3.1670     0.1140 ha         1 T86       0.122000
     29 H8          -2.2810    -4.6080     1.0630 h1         1 T86       0.046033
     30 H9          -2.2900    -4.6870    -0.7200 h1         1 T86       0.046033
     31 H10         -0.8250    -5.1210     0.1850 h1         1 T86       0.046033
     32 H11         -7.7050     2.2400     0.2990 ho         1 T86       0.450000
     33 H12         -6.4410     0.3000    -0.2980 hn         1 T86       0.327500
     34 C12          0.7270     0.4890    -0.2000 c          1 T86       0.619700
     35 C26         -4.7270     1.4700    -0.0770 c          1 T86       0.611700
@<TRIPOS>BOND
     1     1     6 1   
     2     2     4 1   
     3     3     4 ar  
     4     3     8 ar  
     5     3    34 1   
     6     4     5 ar  
     7     5     6 ar  
     8     5    22 1   
     9     6     7 ar  
    10     7     8 ar  
    11     7    23 1   
    12     8    24 1   
    13     9    13 1   
    14     9    25 1   
    15     9    34 1   
    16    10    11 ar  
    17    10    15 ar  
    18    10    26 1   
    19    11    12 ar  
    20    11    35 1   
    21    12    13 ar  
    22    12    27 1   
    23    13    14 ar  
    24    14    15 ar  
    25    14    17 1   
    26    15    28 1   
    27    16    34 2   
    28    17    18 1   
    29    18    29 1   
    30    18    30 1   
    31    18    31 1   
    32    19    20 1   
    33    19    33 1   
    34    19    35 1   
    35    20    32 1   
    36    21    35 2   
@<TRIPOS>SUBSTRUCTURE
     1 T86         1 TEMP              0 ****  ****    0 ROOT
