@<TRIPOS>MOLECULE
T86
   35    36     1     0     0
SMALL
abcg2


@<TRIPOS>ATOM
      1 CL1          6.4560    -0.4640    -1.0530 cl         1 T86      -0.184000
      2 CL2          2.6390     0.7010     2.5020 cl         1 T86      -0.161000
      3 C1           2.0880     0.0390    -0.0760 ca         1 T86      -0.148600
      4 C2           3.0680     0.2650     0.8870 ca         1 T86       0.167000
      5 C3           4.4130     0.1030     0.5970 ca         1 T86      -0.108000
      6 C4           4.7800    -0.2740    -0.6850 ca         1 T86       0.140000
      7 C5           3.8320    -0.5050    -1.6680 ca         1 T86      -0.110000
      8 C6           2.4940    -0.3520    -1.3490 ca         1 T86      -0.073000
      9 N13         -0.1490    -0.7840    -0.1410 ns         1 T86      -0.144000
     10 C14         -4.3000    -1.0370     0.3040 ca         1 T86      -0.058000
     11 C15         -3.7450     0.1370    -0.1910 ca         1 T86      -0.176600
     12 C16         -2.3610     0.2280    -0.3300 ca         1 T86      -0.028000
     13 C17         -1.5430    -0.8340     0.0080 ca         1 T86      -0.074000
     14 C18         -2.1130    -2.0220     0.5010 ca         1 T86       0.133100
     15 C19         -3.4930    -2.1120     0.6410 ca         1 T86      -0.194000
     16 O23          0.2250     1.3090     0.6680 o          1 T86      -0.544100
     17 O24         -1.2510    -3.0000     0.8030 os         1 T86      -0.348100
     18 C25         -1.7560    -4.2460     1.2520 c3         1 T86       0.149900
     19 N27         -5.8470     1.0600    -0.8610 ns         1 T86      -0.378400
     20 O28         -6.6240     2.0620    -1.3620 oh         1 T86      -0.433100
     21 O29         -4.0890     2.4550    -0.5830 o          1 T86      -0.551100
     22 H1           5.1610     0.2670     1.3600 ha         1 T86       0.148000
     23 H2           4.1270    -0.7990    -2.6650 ha         1 T86       0.137000
     24 H3           1.7500    -0.5220    -2.1170 ha         1 T86       0.128000
     25 H4           0.3140    -1.6510    -0.3730 hn         1 T86       0.168000
     26 H5          -5.3660    -1.1330     0.4600 ha         1 T86       0.115000
     27 H6          -1.9280     1.1330    -0.7290 ha         1 T86       0.159000
     28 H7          -3.9540    -3.0080     1.0320 ha         1 T86       0.122000
     29 H8          -2.2960    -4.1470     2.1960 h1         1 T86       0.046033
     30 H9          -2.4120    -4.7060     0.5090 h1         1 T86       0.046033
     31 H10         -0.8920    -4.8870     1.4070 h1         1 T86       0.046033
     32 H11         -7.1900     2.3470    -0.6340 ho         1 T86       0.450000
     33 H12         -6.1380     0.1380    -1.1550 hn         1 T86       0.327500
     34 C12          0.6350     0.2660     0.2020 c          1 T86       0.619700
     35 C26         -4.5540     1.3300    -0.5660 c          1 T86       0.611700
@<TRIPOS>BOND
     1     1     6 1   
     2     2     4 1   
     3     3     4 ar  
     4     3     8 ar  
     5     3    34 1   
     6     4     5 ar  
     7     5     6 ar  
     8     5    22 1   
     9     6     7 ar  
    10     7     8 ar  
    11     7    23 1   
    12     8    24 1   
    13     9    13 1   
    14     9    25 1   
    15     9    34 1   
    16    10    11 ar  
    17    10    15 ar  
    18    10    26 1   
    19    11    12 ar  
    20    11    35 1   
    21    12    13 ar  
    22    12    27 1   
    23    13    14 ar  
    24    14    15 ar  
    25    14    17 1   
    26    15    28 1   
    27    16    34 2   
    28    17    18 1   
    29    18    29 1   
    30    18    30 1   
    31    18    31 1   
    32    19    20 1   
    33    19    33 1   
    34    19    35 1   
    35    20    32 1   
    36    21    35 2   
@<TRIPOS>SUBSTRUCTURE
     1 T86         1 TEMP              0 ****  ****    0 ROOT
