@<TRIPOS>MOLECULE
T87
   70    74     1     0     0
SMALL
bcc


@<TRIPOS>ATOM
      1 N1          -3.5960    10.7690    20.1550 n2         1 T87      -0.832100
      2 N2          -1.2620    10.6490    19.8670 nv         1 T87      -0.963800
      3 C1          -2.5040    10.1070    20.0670 ce         1 T87       0.667800
      4 C2          -2.5490     8.6270    20.1300 ca         1 T87      -0.200900
      5 C3          -3.6370     7.9870    20.7190 ca         1 T87      -0.049500
      6 C4          -3.7180     6.6090    20.8020 ca         1 T87      -0.215500
      7 C5          -2.6960     5.8040    20.2750 ca         1 T87       0.200600
      8 C6          -1.6050     6.4440    19.6670 ca         1 T87      -0.215500
      9 C7          -1.5380     7.8210    19.6000 ca         1 T87      -0.049500
     10 N           -2.7440     4.4400    20.3140 nu         1 T87      -0.790600
     11 C           -3.6890     3.6860    21.0910 c3         1 T87       0.215500
     12 N3          -4.6180     4.3430    23.2930 nc         1 T87      -0.568100
     13 C8          -3.6110     3.9380    22.5670 cd         1 T87       0.379800
     14 N9          -2.4610     3.7850    23.2810 na         1 T87      -0.142300
     15 C3A         -2.7550     4.1390    24.5730 ca         1 T87      -0.079200
     16 C7A         -4.1150     4.4770    24.5640 ca         1 T87       0.070400
     17 C10         -2.0020     4.1890    25.7370 ca         1 T87      -0.133000
     18 C11         -2.6540     4.5830    26.8910 ca         1 T87      -0.095000
     19 C12         -4.0170     4.9340    26.9150 ca         1 T87      -0.048300
     20 C13         -4.7490     4.8780    25.7360 ca         1 T87      -0.068000
     21 C14         -1.1740     3.3420    22.7960 c3         1 T87       0.038600
     22 C9          -6.1440     5.2320    28.3730 cx         1 T87      -0.105400
     23 C15         -5.5930     6.5900    28.1240 cx         1 T87      -0.105400
     24 C16         -4.6570     5.4040    28.1880 cx         1 T87      -0.137000
     25 C17         -3.8400     5.2550    29.4300 ce         1 T87       0.332300
     26 N4          -3.6910     4.1510    30.0490 n2         1 T87      -0.385200
     27 N5          -2.8470     6.4200    31.2920 nb         1 T87      -0.641000
     28 C18         -3.1030     6.4130    29.9850 ca         1 T87       0.380000
     29 C19         -2.6750     7.4310    29.1360 ca         1 T87      -0.222300
     30 C20         -1.9480     8.4830    29.6690 ca         1 T87      -0.097000
     31 C21         -1.6830     8.4920    31.0290 ca         1 T87      -0.239300
     32 C22         -2.1570     7.4330    31.7930 ca         1 T87       0.401200
     33 OH          -4.3450     3.1270    29.4520 os         1 T87      -0.160300
     34 C23         -4.1710     1.9250    30.1590 c3         1 T87       0.078400
     35 C24         -4.1550     0.7530    29.2030 c          1 T87       0.636100
     36 O2          -4.4100    -0.3690    29.5650 o          1 T87      -0.544000
     37 O3          -3.8020     1.0930    27.9840 os         1 T87      -0.396900
     38 C25         -3.2530     0.6970    25.7030 c3         1 T87      -0.097100
     39 C26         -3.7510     0.0660    26.9790 c3         1 T87       0.141400
     40 HN1         -3.4180    11.7690    20.1370 hn         1 T87       0.367400
     41 HN21        -0.4650    10.1470    20.2210 hn         1 T87       0.400300
     42 HN22        -1.1790    11.6480    19.9700 hn         1 T87       0.400300
     43 HC3         -4.4400     8.5830    21.1330 ha         1 T87       0.142000
     44 HC4         -4.5770     6.1650    21.2850 ha         1 T87       0.138000
     45 HC6         -0.8050     5.8500    19.2410 ha         1 T87       0.138000
     46 HC7         -0.6820     8.2640    19.1070 ha         1 T87       0.142000
     47 HN          -1.9440     3.9450    19.9600 hn         1 T87       0.426800
     48 H1C         -4.7180     3.8890    20.7810 h1         1 T87       0.073200
     49 H2C         -3.5100     2.6300    20.8820 h1         1 T87       0.073200
     50 H10C        -0.9510     3.9310    25.7610 ha         1 T87       0.135000
     51 H11C        -2.0730     4.6170    27.8030 ha         1 T87       0.136000
     52 H13C        -5.8000     5.1380    25.7030 ha         1 T87       0.147000
     53 H141        -0.6200     2.8930    23.6160 h1         1 T87       0.050033
     54 H142        -1.2970     2.5820    22.0290 h1         1 T87       0.050033
     55 H143        -0.5910     4.1690    22.3920 h1         1 T87       0.050033
     56 HC91        -6.5020     5.0080    29.3700 hc         1 T87       0.080450
     57 HC92        -6.6920     4.7260    27.5880 hc         1 T87       0.080450
     58 H151        -5.7360     7.0480    27.1530 hc         1 T87       0.080450
     59 H152        -5.5820     7.2920    28.9500 hc         1 T87       0.080450
     60 H19C        -2.8950     7.3970    28.0780 ha         1 T87       0.155000
     61 H20C        -1.5950     9.2820    29.0310 ha         1 T87       0.140000
     62 H21C        -1.1280     9.2950    31.4930 ha         1 T87       0.143000
     63 H22         -1.9740     7.4090    32.8610 h4         1 T87       0.022100
     64 H231        -3.2230     1.9230    30.7090 h1         1 T87       0.078200
     65 H232        -4.9730     1.7690    30.8860 h1         1 T87       0.078200
     66 H251        -3.2410    -0.0540    24.9140 hc         1 T87       0.047033
     67 H252        -3.8940     1.5170    25.3820 hc         1 T87       0.047033
     68 H253        -2.2410     1.0840    25.8160 hc         1 T87       0.047033
     69 H261        -3.0860    -0.7370    27.3050 h1         1 T87       0.047200
     70 H262        -4.7480    -0.3590    26.8460 h1         1 T87       0.047200
@<TRIPOS>BOND
     1     1     3 2   
     2     1    40 1   
     3     2     3 1   
     4     2    41 1   
     5     2    42 1   
     6     3     4 1   
     7     4     5 ar  
     8     4     9 ar  
     9     5     6 ar  
    10     5    43 1   
    11     6     7 ar  
    12     6    44 1   
    13     7     8 ar  
    14     7    10 1   
    15     8     9 ar  
    16     8    45 1   
    17     9    46 1   
    18    10    11 1   
    19    10    47 1   
    20    11    13 1   
    21    11    48 1   
    22    11    49 1   
    23    12    13 2   
    24    12    16 1   
    25    13    14 1   
    26    14    15 1   
    27    14    21 1   
    28    15    16 ar  
    29    15    17 ar  
    30    16    20 ar  
    31    17    18 ar  
    32    17    50 1   
    33    18    19 ar  
    34    18    51 1   
    35    19    20 ar  
    36    19    24 1   
    37    20    52 1   
    38    21    53 1   
    39    21    54 1   
    40    21    55 1   
    41    22    23 1   
    42    22    24 1   
    43    22    56 1   
    44    22    57 1   
    45    23    24 1   
    46    23    58 1   
    47    23    59 1   
    48    24    25 1   
    49    25    26 2   
    50    25    28 1   
    51    26    33 1   
    52    27    28 ar  
    53    27    32 ar  
    54    28    29 ar  
    55    29    30 ar  
    56    29    60 1   
    57    30    31 ar  
    58    30    61 1   
    59    31    32 ar  
    60    31    62 1   
    61    32    63 1   
    62    33    34 1   
    63    34    35 1   
    64    34    64 1   
    65    34    65 1   
    66    35    36 2   
    67    35    37 1   
    68    37    39 1   
    69    38    39 1   
    70    38    66 1   
    71    38    67 1   
    72    38    68 1   
    73    39    69 1   
    74    39    70 1   
@<TRIPOS>SUBSTRUCTURE
     1 T87         1 TEMP              0 ****  ****    0 ROOT
