@<TRIPOS>MOLECULE
T87
   70    74     1     0     0
SMALL
No Charge or Current Charge


@<TRIPOS>ATOM
      1 N1          -3.1250    10.8440    20.1460 n2         1 T87      -0.832100
      2 N2          -0.9100    10.4560    20.2000 nv         1 T87      -1.074200
      3 C1          -2.1780    10.0000    20.1350 ce         1 T87       0.667800
      4 C2          -2.3940     8.5210    20.1830 ca         1 T87      -0.200900
      5 C3          -3.6390     7.9970    20.6000 ca         1 T87      -0.031500
      6 C4          -3.8630     6.6090    20.6180 ca         1 T87      -0.197500
      7 C5          -2.8580     5.7230    20.2060 ca         1 T87       0.339000
      8 C6          -1.6320     6.2310    19.7630 ca         1 T87      -0.197500
      9 C7          -1.3980     7.6170    19.7440 ca         1 T87      -0.031500
     10 N           -3.0540     4.3430    20.2180 nu         1 T87      -0.984200
     11 C           -4.0020     3.5870    21.0960 c3         1 T87       0.215500
     12 N3          -4.9110     4.3290    23.3310 nc         1 T87      -0.568100
     13 C8          -3.8600     3.9210    22.5840 cd         1 T87       0.379800
     14 N9          -2.6560     3.8300    23.3100 na         1 T87      -0.171600
     15 C3A         -3.0010     4.2310    24.5710 ca         1 T87      -0.079200
     16 C7A         -4.3350     4.5170    24.5770 ca         1 T87       0.070400
     17 C10         -2.2070     4.3550    25.7160 ca         1 T87      -0.115000
     18 C11         -2.8260     4.7760    26.9090 ca         1 T87      -0.077000
     19 C12         -4.2220     5.0670    26.9540 ca         1 T87      -0.048300
     20 C13         -4.9710     4.9400    25.7540 ca         1 T87      -0.050000
     21 C14         -1.3140     3.4040    22.8830 c3         1 T87       0.067900
     22 C9          -6.3910     5.1850    28.5050 cx         1 T87      -0.105400
     23 C15         -5.9480     6.6000    28.2330 cx         1 T87      -0.105400
     24 C16         -4.9200     5.4810    28.2520 cx         1 T87      -0.137000
     25 C17         -3.9980     5.4300    29.4760 ce         1 T87       0.332300
     26 N4          -3.8280     4.2880    30.0970 n2         1 T87      -0.286700
     27 N5          -2.9220     6.5820    31.4090 nb         1 T87      -0.641000
     28 C18         -3.1740     6.5540    30.0660 ca         1 T87       0.314700
     29 C19         -2.6800     7.5600    29.2070 ca         1 T87      -0.139000
     30 C20         -1.9130     8.6140    29.7300 ca         1 T87      -0.079000
     31 C21         -1.6620     8.6280    31.1100 ca         1 T87      -0.156000
     32 C22         -2.1820     7.5980    31.9090 ca         1 T87       0.335900
     33 OH          -4.1200     3.1370    29.3300 os         1 T87      -0.282000
     34 C23         -3.6510     1.9390    29.9860 c3         1 T87       0.101600
     35 C24         -3.7780     0.7200    29.0510 c          1 T87       0.587100
     36 O2          -4.1250    -0.3950    29.4260 o          1 T87      -0.495000
     37 O3          -3.3870     1.0140    27.7660 os         1 T87      -0.420100
     38 C25         -3.0420     0.6070    25.4320 c3         1 T87      -0.097100
     39 C26         -3.4450    -0.0240    26.7750 c3         1 T87       0.164600
     40 HN1         -2.7310    11.7630    19.9210 hn         1 T87       0.367400
     41 HN21        -0.2290     9.7720    20.5090 hn         1 T87       0.455500
     42 HN22        -0.7880    11.3860    20.5810 hn         1 T87       0.455500
     43 HC3         -4.4360     8.6640    20.9220 ha         1 T87       0.124000
     44 HC4         -4.8260     6.2330    20.9470 ha         1 T87       0.120000
     45 HC6         -0.8520     5.5530    19.4290 ha         1 T87       0.120000
     46 HC7         -0.4410     7.9800    19.3740 ha         1 T87       0.124000
     47 HN          -2.3030     3.8000    19.7880 hn         1 T87       0.482000
     48 H1C         -5.0370     3.8010    20.7950 h1         1 T87       0.073200
     49 H2C         -3.8530     2.5060    20.9730 h1         1 T87       0.073200
     50 H10C        -1.1440     4.1270    25.6960 ha         1 T87       0.117000
     51 H11C        -2.2020     4.8570    27.7950 ha         1 T87       0.118000
     52 H13C        -6.0330     5.1560    25.7240 ha         1 T87       0.129000
     53 H141        -0.8220     2.8510    23.6930 h1         1 T87       0.050033
     54 H142        -1.3890     2.7510    22.0060 h1         1 T87       0.050033
     55 H143        -0.7150     4.2870    22.6280 h1         1 T87       0.050033
     56 HC91        -6.6940     4.9400    29.5200 hc         1 T87       0.080450
     57 HC92        -6.9600     4.6680    27.7380 hc         1 T87       0.080450
     58 H151        -6.2150     7.0410    27.2760 hc         1 T87       0.080450
     59 H152        -5.9620     7.3000    29.0660 hc         1 T87       0.080450
     60 H19C        -2.8920     7.5230    28.1420 ha         1 T87       0.137000
     61 H20C        -1.5240     9.3980    29.0830 ha         1 T87       0.122000
     62 H21C        -1.0730     9.4230    31.5610 ha         1 T87       0.125000
     63 H22         -2.0030     7.5850    32.9840 h4         1 T87       0.022100
     64 H231        -2.5890     2.0320    30.2450 h1         1 T87       0.078200
     65 H232        -4.2230     1.7370    30.8990 h1         1 T87       0.078200
     66 H251        -3.0500    -0.1490    24.6390 hc         1 T87       0.047033
     67 H252        -3.7430     1.4030    25.1560 hc         1 T87       0.047033
     68 H253        -2.0340     1.0340    25.4910 hc         1 T87       0.047033
     69 H261        -2.7550    -0.8410    27.0230 h1         1 T87       0.047200
     70 H262        -4.4610    -0.4340    26.6950 h1         1 T87       0.047200
@<TRIPOS>BOND
     1     1     3 2   
     2     1    40 1   
     3     2     3 1   
     4     2    41 1   
     5     2    42 1   
     6     3     4 1   
     7     4     5 ar  
     8     4     9 ar  
     9     5     6 ar  
    10     5    43 1   
    11     6     7 ar  
    12     6    44 1   
    13     7     8 ar  
    14     7    10 1   
    15     8     9 ar  
    16     8    45 1   
    17     9    46 1   
    18    10    11 1   
    19    10    47 1   
    20    11    13 1   
    21    11    48 1   
    22    11    49 1   
    23    12    13 2   
    24    12    16 1   
    25    13    14 1   
    26    14    15 1   
    27    14    21 1   
    28    15    16 ar  
    29    15    17 ar  
    30    16    20 ar  
    31    17    18 ar  
    32    17    50 1   
    33    18    19 ar  
    34    18    51 1   
    35    19    20 ar  
    36    19    24 1   
    37    20    52 1   
    38    21    53 1   
    39    21    54 1   
    40    21    55 1   
    41    22    23 1   
    42    22    24 1   
    43    22    56 1   
    44    22    57 1   
    45    23    24 1   
    46    23    58 1   
    47    23    59 1   
    48    24    25 1   
    49    25    26 2   
    50    25    28 1   
    51    26    33 1   
    52    27    28 ar  
    53    27    32 ar  
    54    28    29 ar  
    55    29    30 ar  
    56    29    60 1   
    57    30    31 ar  
    58    30    61 1   
    59    31    32 ar  
    60    31    62 1   
    61    32    63 1   
    62    33    34 1   
    63    34    35 1   
    64    34    64 1   
    65    34    65 1   
    66    35    36 2   
    67    35    37 1   
    68    37    39 1   
    69    38    39 1   
    70    38    66 1   
    71    38    67 1   
    72    38    68 1   
    73    39    69 1   
    74    39    70 1   
@<TRIPOS>SUBSTRUCTURE
     1 T87         1 TEMP              0 ****  ****    0 ROOT
