@<TRIPOS>MOLECULE
T88
   61    62     1     0     0
SMALL
No Charge or Current Charge


@<TRIPOS>ATOM
      1 C01          6.8330    -1.7190     0.7960 ca         1 T88       0.120000
      2 C02          7.6660    -1.4560    -0.3110 ca         1 T88       0.116000
      3 C03          7.1540    -0.7620    -1.4200 ca         1 T88      -0.094000
      4 C04          5.8150    -0.3310    -1.4280 ca         1 T88      -0.099000
      5 C05          4.9790    -0.5940    -0.3260 ca         1 T88      -0.070300
      6 C06          5.4950    -1.2880     0.7860 ca         1 T88      -0.098000
      7 C07          3.5310    -0.1210    -0.3290 c3         1 T88      -0.036100
      8 C08          3.3690     1.2380     0.3890 c3         1 T88       0.178800
      9 N09          2.0420     1.9010     0.2170 n3         1 T88      -0.733600
     10 C10          2.0400     3.3080     0.7150 c3         1 T88       0.179800
     11 C11          2.9700     4.2770    -0.0520 c3         1 T88      -0.080400
     12 C12          2.7580     5.7540     0.3480 c3         1 T88      -0.075400
     13 C13          3.6850     6.7240    -0.4100 c3         1 T88      -0.088100
     14 C14          0.9110     1.0990     0.7920 c3         1 T88       0.144800
     15 C15         -0.4920     1.5710     0.3250 c3         1 T88       0.168300
     16 C16         -1.5830     0.4910     0.5350 c3         1 T88       0.124600
     17 O17         -2.8700     1.0620     0.2250 os         1 T88      -0.323100
     18 C18         -4.0390     0.3370     0.3220 ca         1 T88       0.152100
     19 C19         -4.0680    -1.0120     0.7330 ca         1 T88      -0.165000
     20 C20         -5.2950    -1.6970     0.8130 ca         1 T88      -0.066500
     21 C21         -6.5040    -1.0560     0.4830 ca         1 T88       0.186000
     22 C22         -6.4670     0.2960     0.0800 ca         1 T88      -0.066500
     23 C23         -5.2420     0.9830    -0.0000 ca         1 T88      -0.165000
     24 N24         -7.6950    -1.7870     0.5820 nu         1 T88      -0.866100
     25 S25         -9.1830    -1.5210    -0.1150 s6         1 T88       1.185100
     26 C26         -8.8630    -1.4270    -1.8640 c3         1 T88      -0.384100
     27 O27         -9.9510    -2.7360     0.1610 o          1 T88      -0.526000
     28 O28         -9.6490    -0.2200     0.3700 o          1 T88      -0.526000
     29 O29         -0.3640     1.9290    -1.0610 oh         1 T88      -0.622000
     30 Cl1          9.3500    -1.9820    -0.3320 cl         1 T88      -0.171000
     31 Cl2          7.4410    -2.5850     2.2080 cl         1 T88      -0.174000
     32 H1           7.7950    -0.5570    -2.2740 ha         1 T88       0.133000
     33 H2           5.4300     0.2080    -2.2910 ha         1 T88       0.123000
     34 H3           4.8610    -1.4930     1.6440 ha         1 T88       0.128000
     35 H4           3.1660    -0.0240    -1.3580 hc         1 T88       0.058200
     36 H5           2.9030    -0.8790     0.1540 hc         1 T88       0.058200
     37 H6           3.5860     1.1010     1.4570 h1         1 T88       0.037700
     38 H7           4.1590     1.8830    -0.0130 h1         1 T88       0.037700
     39 H9           1.0280     3.7250     0.6420 h1         1 T88       0.028700
     40 H10          2.3110     3.3280     1.7790 h1         1 T88       0.028700
     41 H11          4.0180     4.0160     0.1320 hc         1 T88       0.048700
     42 H12          2.7910     4.1660    -1.1280 hc         1 T88       0.048700
     43 H13          1.7160     6.0370     0.1580 hc         1 T88       0.036200
     44 H14          2.9290     5.8660     1.4260 hc         1 T88       0.036200
     45 H15          3.5140     6.6600    -1.4910 hc         1 T88       0.033367
     46 H16          3.4980     7.7570    -0.0940 hc         1 T88       0.033367
     47 H17          4.7380     6.4910    -0.2110 hc         1 T88       0.033367
     48 H18          1.0010     0.0500     0.4890 h1         1 T88       0.034200
     49 H19          0.9490     1.1160     1.8890 h1         1 T88       0.034200
     50 H20         -0.7690     2.4530     0.9190 h1         1 T88       0.091700
     51 H21         -1.3740    -0.3720    -0.1110 h1         1 T88       0.035700
     52 H22         -1.5580     0.1560     1.5800 h1         1 T88       0.035700
     53 H23         -3.1570    -1.5440     0.9930 ha         1 T88       0.129500
     54 H24         -5.3040    -2.7370     1.1320 ha         1 T88       0.127500
     55 H25         -7.3790     0.8300    -0.1680 ha         1 T88       0.127500
     56 H26         -5.2250     2.0240    -0.3130 ha         1 T88       0.129500
     57 H27         -7.6450    -2.7800     0.7690 hn         1 T88       0.485000
     58 H28         -8.3970    -2.3710    -2.1660 h1         1 T88       0.101700
     59 H29         -9.8250    -1.2810    -2.3660 h1         1 T88       0.101700
     60 H30         -8.1930    -0.5800    -2.0390 h1         1 T88       0.101700
     61 H31          0.6080     2.0880    -1.1470 ho         1 T88       0.434000
@<TRIPOS>BOND
     1     1     2 ar  
     2     1     6 ar  
     3     1    31 1   
     4     2     3 ar  
     5     2    30 1   
     6     3     4 ar  
     7     3    32 1   
     8     4     5 ar  
     9     4    33 1   
    10     5     6 ar  
    11     5     7 1   
    12     6    34 1   
    13     7     8 1   
    14     7    35 1   
    15     7    36 1   
    16     8     9 1   
    17     8    37 1   
    18     8    38 1   
    19     9    10 1   
    20     9    14 1   
    21    10    11 1   
    22    10    39 1   
    23    10    40 1   
    24    11    12 1   
    25    11    41 1   
    26    11    42 1   
    27    12    13 1   
    28    12    43 1   
    29    12    44 1   
    30    13    45 1   
    31    13    46 1   
    32    13    47 1   
    33    14    15 1   
    34    14    48 1   
    35    14    49 1   
    36    15    16 1   
    37    15    29 1   
    38    15    50 1   
    39    16    17 1   
    40    16    51 1   
    41    16    52 1   
    42    17    18 1   
    43    18    19 ar  
    44    18    23 ar  
    45    19    20 ar  
    46    19    53 1   
    47    20    21 ar  
    48    20    54 1   
    49    21    22 ar  
    50    21    24 1   
    51    22    23 ar  
    52    22    55 1   
    53    23    56 1   
    54    24    25 1   
    55    24    57 1   
    56    25    26 1   
    57    25    27 2   
    58    25    28 2   
    59    26    58 1   
    60    26    59 1   
    61    26    60 1   
    62    29    61 1   
@<TRIPOS>SUBSTRUCTURE
     1 T88         1 TEMP              0 ****  ****    0 ROOT
