@<TRIPOS>MOLECULE
T88
   61    62     1     0     0
SMALL
bcc


@<TRIPOS>ATOM
      1 C01          5.8590    -2.3940    -0.3580 ca         1 T88       0.028400
      2 C02          7.0500    -1.7820    -0.7290 ca         1 T88       0.024400
      3 C03          7.0320    -0.4710    -1.1820 ca         1 T88      -0.112000
      4 C04          5.8340     0.2180    -1.2610 ca         1 T88      -0.117000
      5 C05          4.6330    -0.3830    -0.8910 ca         1 T88      -0.070300
      6 C06          4.6630    -1.6960    -0.4370 ca         1 T88      -0.116000
      7 C07          3.3450     0.3850    -0.9310 c3         1 T88      -0.036100
      8 C08          3.1690     1.2290     0.3320 c3         1 T88       0.178800
      9 N09          1.9480     2.0110     0.2990 n3         1 T88      -0.733600
     10 C10          2.0490     3.2470     1.0580 c3         1 T88       0.179800
     11 C11          2.8120     4.3380     0.3210 c3         1 T88      -0.080400
     12 C12          2.9620     5.6060     1.1520 c3         1 T88      -0.075400
     13 C13          3.7260     6.6990     0.4180 c3         1 T88      -0.088100
     14 C14          0.7770     1.2350     0.6530 c3         1 T88       0.144800
     15 C15         -0.4670     1.6840    -0.1110 c3         1 T88       0.145100
     16 C16         -1.6820     0.9490     0.4300 c3         1 T88       0.101400
     17 O17         -2.8280     1.4310    -0.2450 os         1 T88      -0.299900
     18 C18         -4.0150     0.8470    -0.0040 ca         1 T88       0.152100
     19 C19         -4.2290    -0.1330     0.9630 ca         1 T88      -0.183000
     20 C20         -5.4950    -0.6810     1.1200 ca         1 T88      -0.084500
     21 C21         -6.5600    -0.2530     0.3420 ca         1 T88       0.047600
     22 C22         -6.3480     0.7420    -0.6100 ca         1 T88      -0.084500
     23 C23         -5.0880     1.2790    -0.7880 ca         1 T88      -0.183000
     24 N24         -7.8620    -0.7950     0.5170 nu         1 T88      -0.672500
     25 S25         -8.4030    -1.9450    -0.5550 s6         1 T88       1.215900
     26 C26         -7.3480    -3.3610    -0.3510 c3         1 T88      -0.273300
     27 O27         -9.7440    -2.2980    -0.1180 o          1 T88      -0.596800
     28 O28         -8.1980    -1.4170    -1.8930 o          1 T88      -0.596800
     29 O29         -0.3280     1.5230    -1.5000 oh         1 T88      -0.559800
     30 CL1          8.5460    -2.6320    -0.6360 cl         1 T88      -0.079400
     31 CL2          5.8500    -4.0250     0.2020 cl         1 T88      -0.082400
     32 H1           7.9580     0.0070    -1.4730 ha         1 T88       0.151000
     33 H2           5.8380     1.2400    -1.6200 ha         1 T88       0.141000
     34 H3           3.7430    -2.1870    -0.1440 ha         1 T88       0.146000
     35 H4           3.3280     1.0500    -1.7980 hc         1 T88       0.058200
     36 H5           2.5100    -0.3100    -1.0470 hc         1 T88       0.058200
     37 H6           3.2240     0.5830     1.2230 h1         1 T88       0.037700
     38 H7           4.0210     1.9100     0.4020 h1         1 T88       0.037700
     39 H9           1.0390     3.6170     1.2560 h1         1 T88       0.028700
     40 H10          2.5010     3.0750     2.0500 h1         1 T88       0.028700
     41 H11          3.8080     3.9820     0.0360 hc         1 T88       0.048700
     42 H12          2.2900     4.5630    -0.6140 hc         1 T88       0.048700
     43 H13          1.9720     5.9770     1.4350 hc         1 T88       0.036200
     44 H14          3.4750     5.3660     2.0880 hc         1 T88       0.036200
     45 H15          3.2180     6.9790    -0.5070 hc         1 T88       0.033367
     46 H16          3.8250     7.5990     1.0260 hc         1 T88       0.033367
     47 H17          4.7310     6.3660     0.1530 hc         1 T88       0.033367
     48 H18          0.9560     0.1810     0.4160 h1         1 T88       0.034200
     49 H19          0.5780     1.2650     1.7360 h1         1 T88       0.034200
     50 H20         -0.6190     2.7570     0.0500 h1         1 T88       0.091700
     51 H21         -1.5700    -0.1320     0.2720 h1         1 T88       0.035700
     52 H22         -1.7660     1.1190     1.5090 h1         1 T88       0.035700
     53 H23         -3.4300    -0.4870     1.5990 ha         1 T88       0.147500
     54 H24         -5.6450    -1.4490     1.8690 ha         1 T88       0.145500
     55 H25         -7.1720     1.1010    -1.2110 ha         1 T88       0.145500
     56 H26         -4.9280     2.0480    -1.5330 ha         1 T88       0.147500
     57 H27         -8.0970    -1.0390     1.4740 hn         1 T88       0.429800
     58 H28         -7.4290    -3.7230     0.6720 h1         1 T88       0.101700
     59 H29         -7.6840    -4.1300    -1.0450 h1         1 T88       0.101700
     60 H30         -6.3200    -3.0870    -0.5760 h1         1 T88       0.101700
     61 H31         -0.0610     0.6150    -1.6800 ho         1 T88       0.395000
@<TRIPOS>BOND
     1     1     2 ar  
     2     1     6 ar  
     3     1    31 1   
     4     2     3 ar  
     5     2    30 1   
     6     3     4 ar  
     7     3    32 1   
     8     4     5 ar  
     9     4    33 1   
    10     5     6 ar  
    11     5     7 1   
    12     6    34 1   
    13     7     8 1   
    14     7    35 1   
    15     7    36 1   
    16     8     9 1   
    17     8    37 1   
    18     8    38 1   
    19     9    10 1   
    20     9    14 1   
    21    10    11 1   
    22    10    39 1   
    23    10    40 1   
    24    11    12 1   
    25    11    41 1   
    26    11    42 1   
    27    12    13 1   
    28    12    43 1   
    29    12    44 1   
    30    13    45 1   
    31    13    46 1   
    32    13    47 1   
    33    14    15 1   
    34    14    48 1   
    35    14    49 1   
    36    15    16 1   
    37    15    29 1   
    38    15    50 1   
    39    16    17 1   
    40    16    51 1   
    41    16    52 1   
    42    17    18 1   
    43    18    19 ar  
    44    18    23 ar  
    45    19    20 ar  
    46    19    53 1   
    47    20    21 ar  
    48    20    54 1   
    49    21    22 ar  
    50    21    24 1   
    51    22    23 ar  
    52    22    55 1   
    53    23    56 1   
    54    24    25 1   
    55    24    57 1   
    56    25    26 1   
    57    25    27 2   
    58    25    28 2   
    59    26    58 1   
    60    26    59 1   
    61    26    60 1   
    62    29    61 1   
@<TRIPOS>SUBSTRUCTURE
     1 T88         1 TEMP              0 ****  ****    0 ROOT
