@<TRIPOS>MOLECULE
T89
   33    34     1     0     0
SMALL
abcg2


@<TRIPOS>ATOM
      1 C4           1.8110     0.7810   -55.4360 c6         1 T89       0.099500
      2 C5           3.1690     1.4790   -55.4080 c6         1 T89      -0.088900
      3 C6           0.9100    -0.5320   -53.5790 c          1 T89       0.615700
      4 C7           1.0850    -1.6580   -52.6020 ca         1 T89      -0.138600
      5 C8           0.0510    -2.5790   -52.4360 ca         1 T89      -0.078000
      6 C10          1.2880    -3.6670   -50.6760 ca         1 T89      -0.097000
      7 N            1.8280    -0.3880   -54.5570 n          1 T89      -0.409800
      8 C            5.6720     1.1850   -55.7320 c3         1 T89       0.165600
      9 O            5.9610     1.6550   -54.4090 oh         1 T89      -0.668000
     10 C1           4.3080     0.5140   -55.7570 c6         1 T89      -0.057700
     11 C11          2.3140    -2.7380   -50.8260 ca         1 T89      -0.117500
     12 C12          2.2160    -1.7410   -51.7900 ca         1 T89      -0.078000
     13 C2           4.2450    -0.7270   -54.8610 c6         1 T89      -0.088900
     14 C3           2.8610    -1.3650   -54.9050 c6         1 T89       0.099500
     15 C9           0.1580    -3.5870   -51.4850 ca         1 T89      -0.117500
     16 O1          -0.0510     0.2350   -53.4410 o          1 T89      -0.606100
     17 H1           1.0160     1.4430   -55.1080 h1         1 T89       0.054950
     18 H2           1.5810     0.4470   -56.4540 h1         1 T89       0.054950
     19 H3           3.3330     1.8960   -54.4110 hc         1 T89       0.056200
     20 H4           3.1540     2.3140   -56.1140 hc         1 T89       0.056200
     21 H5          -0.8340    -2.5050   -53.0560 ha         1 T89       0.123000
     22 H6           1.3680    -4.4480   -49.9310 ha         1 T89       0.114000
     23 H7           6.4360     0.4660   -56.0490 h1         1 T89       0.022200
     24 H8           5.6790     2.0240   -56.4370 h1         1 T89       0.022200
     25 H9           6.8330     2.0650   -54.4200 ho         1 T89       0.441000
     26 H10          4.1570     0.1840   -56.7930 hc         1 T89       0.044700
     27 H11          3.1910    -2.7900   -50.1940 ha         1 T89       0.115500
     28 H12          3.0170    -1.0220   -51.9080 ha         1 T89       0.123000
     29 H13          4.9870    -1.4620   -55.1840 hc         1 T89       0.056200
     30 H14          4.4810    -0.4510   -53.8300 hc         1 T89       0.056200
     31 H15          2.6520    -1.7180   -55.9210 h1         1 T89       0.054950
     32 H16          2.7950    -2.2190   -54.2410 h1         1 T89       0.054950
     33 H17         -0.6430    -4.3070   -51.3720 ha         1 T89       0.115500
@<TRIPOS>BOND
     1     1     2 1   
     2     1     7 1   
     3     1    17 1   
     4     1    18 1   
     5     2    10 1   
     6     2    19 1   
     7     2    20 1   
     8     3     4 1   
     9     3     7 1   
    10     3    16 2   
    11     4     5 ar  
    12     4    12 ar  
    13     5    15 ar  
    14     5    21 1   
    15     6    11 ar  
    16     6    15 ar  
    17     6    22 1   
    18     7    14 1   
    19     8     9 1   
    20     8    10 1   
    21     8    23 1   
    22     8    24 1   
    23     9    25 1   
    24    10    13 1   
    25    10    26 1   
    26    11    12 ar  
    27    11    27 1   
    28    12    28 1   
    29    13    14 1   
    30    13    29 1   
    31    13    30 1   
    32    14    31 1   
    33    14    32 1   
    34    15    33 1   
@<TRIPOS>SUBSTRUCTURE
     1 T89         1 TEMP              0 ****  ****    0 ROOT
