@<TRIPOS>MOLECULE
T89
   33    34     1     0     0
SMALL
No Charge or Current Charge


@<TRIPOS>ATOM
      1 C4           1.9370     0.9240   -55.0940 c6         1 T89       0.099500
      2 C5           3.3060     1.6140   -55.3040 c6         1 T89      -0.088900
      3 C6           0.8080    -0.8220   -53.7100 c          1 T89       0.615700
      4 C7           0.9000    -1.8600   -52.6090 ca         1 T89      -0.138600
      5 C8          -0.1740    -2.7550   -52.4020 ca         1 T89      -0.078000
      6 C10          1.0010    -3.7790   -50.5310 ca         1 T89      -0.097000
      7 N            2.0080    -0.3000   -54.2440 n          1 T89      -0.409800
      8 C            5.7480     1.2930   -56.0980 c3         1 T89       0.165600
      9 O            6.3390     1.8270   -54.9060 oh         1 T89      -0.668000
     10 C1           4.3650     0.6210   -55.8410 c6         1 T89      -0.057700
     11 C11          2.0640    -2.8800   -50.7110 ca         1 T89      -0.117500
     12 C12          2.0130    -1.9220   -51.7380 ca         1 T89      -0.078000
     13 C2           4.4540    -0.5890   -54.8810 c6         1 T89      -0.088900
     14 C3           3.0710    -1.2540   -54.6880 c6         1 T89       0.099500
     15 C9          -0.1190    -3.7120   -51.3740 ca         1 T89      -0.117500
     16 O1          -0.2810    -0.3780   -54.0590 o          1 T89      -0.606100
     17 H1           1.2470     1.6480   -54.6360 h1         1 T89       0.054950
     18 H2           1.5170     0.6500   -56.0730 h1         1 T89       0.054950
     19 H3           3.6410     2.0400   -54.3480 hc         1 T89       0.056200
     20 H4           3.1890     2.4570   -55.9980 hc         1 T89       0.056200
     21 H5          -1.0500    -2.7150   -53.0450 ha         1 T89       0.123000
     22 H6           1.0410    -4.5190   -49.7340 ha         1 T89       0.114000
     23 H7           6.4170     0.5450   -56.5450 h1         1 T89       0.022200
     24 H8           5.6120     2.0920   -56.8390 h1         1 T89       0.022200
     25 H9           7.1990     2.2260   -55.1680 ho         1 T89       0.441000
     26 H10          4.0280     0.2580   -56.8220 hc         1 T89       0.044700
     27 H11          2.9270    -2.9210   -50.0490 ha         1 T89       0.115500
     28 H12          2.8370    -1.2180   -51.8430 ha         1 T89       0.123000
     29 H13          5.1650    -1.3300   -55.2710 hc         1 T89       0.056200
     30 H14          4.8380    -0.2700   -53.9030 hc         1 T89       0.056200
     31 H15          2.7560    -1.6940   -55.6460 h1         1 T89       0.054950
     32 H16          3.1740    -2.0890   -53.9850 h1         1 T89       0.054950
     33 H17         -0.9480    -4.4020   -51.2300 ha         1 T89       0.115500
@<TRIPOS>BOND
     1     1     2 1   
     2     1     7 1   
     3     1    17 1   
     4     1    18 1   
     5     2    10 1   
     6     2    19 1   
     7     2    20 1   
     8     3     4 1   
     9     3     7 1   
    10     3    16 2   
    11     4     5 ar  
    12     4    12 ar  
    13     5    15 ar  
    14     5    21 1   
    15     6    11 ar  
    16     6    15 ar  
    17     6    22 1   
    18     7    14 1   
    19     8     9 1   
    20     8    10 1   
    21     8    23 1   
    22     8    24 1   
    23     9    25 1   
    24    10    13 1   
    25    10    26 1   
    26    11    12 ar  
    27    11    27 1   
    28    12    28 1   
    29    13    14 1   
    30    13    29 1   
    31    13    30 1   
    32    14    31 1   
    33    14    32 1   
    34    15    33 1   
@<TRIPOS>SUBSTRUCTURE
     1 T89         1 TEMP              0 ****  ****    0 ROOT
