@<TRIPOS>MOLECULE
T8A
   36    38     1     0     0
SMALL
No Charge or Current Charge


@<TRIPOS>ATOM
      1 C10          0.4600     3.4550     0.6770 ca         1 T8A      -0.110000
      2 C13          0.2410    -0.3820     0.3790 c6         1 T8A       0.005900
      3 C15          2.5140    -1.3090     1.0930 ca         1 T8A      -0.103000
      4 C17          4.4610    -1.1750    -0.3630 ca         1 T8A      -0.107000
      5 C20         -0.6410    -1.2470    -0.5500 c6         1 T8A       0.103000
      6 C03         -2.6670    -3.0950     0.6900 c3         1 T8A      -0.177100
      7 C06         -2.3520     0.5050    -0.8550 c6         1 T8A       0.133300
      8 C07         -1.3360     1.5260    -0.3210 ca         1 T8A      -0.096300
      9 C08         -1.6400     2.8980    -0.4110 ca         1 T8A      -0.104000
     10 C09         -0.7450     3.8600     0.0840 ca         1 T8A      -0.106000
     11 C11          0.7740     2.0890     0.7700 ca         1 T8A      -0.099000
     12 C12         -0.1110     1.1140     0.2620 ca         1 T8A      -0.070300
     13 C14          1.7280    -0.6620     0.1170 ca         1 T8A      -0.083300
     14 C16          3.8750    -1.5640     0.8530 ca         1 T8A      -0.110000
     15 C18          3.6850    -0.5300    -1.3390 ca         1 T8A      -0.110000
     16 C19          2.3240    -0.2740    -1.1010 ca         1 T8A      -0.103000
     17 N05         -2.0690    -0.8800    -0.4030 n          1 T8A      -0.407800
     18 O01         -4.2090    -1.3120     0.3130 o          1 T8A      -0.598100
     19 H101         1.1520     4.1990     1.0670 ha         1 T8A       0.114000
     20 H131         0.0060    -0.6780     1.4100 hc         1 T8A       0.064700
     21 H151         2.0720    -1.6150     2.0390 ha         1 T8A       0.114000
     22 H171         5.5150    -1.3730    -0.5470 ha         1 T8A       0.114000
     23 H201        -0.3460    -1.0760    -1.5950 h1         1 T8A       0.057700
     24 H202        -0.4610    -2.3100    -0.3450 h1         1 T8A       0.057700
     25 H031        -1.8190    -3.0130     1.3780 hc         1 T8A       0.060367
     26 H1          -3.5080    -3.6230     1.1530 hc         1 T8A       0.060367
     27 H032        -2.2520    -3.6700    -0.1450 hc         1 T8A       0.060367
     28 H061        -3.3570     0.8160    -0.5400 h1         1 T8A       0.070700
     29 H062        -2.3380     0.5300    -1.9540 h1         1 T8A       0.070700
     30 H081        -2.5770     3.2210    -0.8610 ha         1 T8A       0.114000
     31 H091        -0.9880     4.9180     0.0120 ha         1 T8A       0.114000
     32 H111         1.7090     1.7900     1.2380 ha         1 T8A       0.118000
     33 H161         4.4760    -2.0640     1.6110 ha         1 T8A       0.114000
     34 H181         4.1380    -0.2260    -2.2810 ha         1 T8A       0.114000
     35 H191         1.7320     0.2320    -1.8610 ha         1 T8A       0.114000
     36 C02         -3.0550    -1.7000     0.1940 c          1 T8A       0.609100
@<TRIPOS>BOND
     1     1    10 ar  
     2     1    11 ar  
     3     1    19 1   
     4     2     5 1   
     5     2    12 1   
     6     2    13 1   
     7     2    20 1   
     8     3    13 ar  
     9     3    14 ar  
    10     3    21 1   
    11     4    14 ar  
    12     4    15 ar  
    13     4    22 1   
    14     5    17 1   
    15     5    23 1   
    16     5    24 1   
    17     6    25 1   
    18     6    26 1   
    19     6    27 1   
    20     6    36 1   
    21     7     8 1   
    22     7    17 1   
    23     7    28 1   
    24     7    29 1   
    25     8     9 ar  
    26     8    12 ar  
    27     9    10 ar  
    28     9    30 1   
    29    10    31 1   
    30    11    12 ar  
    31    11    32 1   
    32    13    16 ar  
    33    14    33 1   
    34    15    16 ar  
    35    15    34 1   
    36    16    35 1   
    37    17    36 1   
    38    18    36 2   
@<TRIPOS>SUBSTRUCTURE
     1 T8A         1 TEMP              0 ****  ****    0 ROOT
