@<TRIPOS>MOLECULE
T8A
   36    38     1     0     0
SMALL
abcg2


@<TRIPOS>ATOM
      1 C10          0.3440     3.3810     0.7520 ca         1 T8A      -0.110000
      2 C13          0.2320    -0.4020     0.3560 c6         1 T8A       0.005900
      3 C15          2.4420    -1.4240     0.9980 ca         1 T8A      -0.103000
      4 C17          4.3980    -1.2060    -0.3850 ca         1 T8A      -0.107000
      5 C20         -0.6140    -1.2460    -0.6030 c6         1 T8A       0.103000
      6 C03         -2.5000    -2.8730     0.8290 c3         1 T8A      -0.177100
      7 C06         -2.2700     0.4510    -0.9920 c6         1 T8A       0.133300
      8 C07         -1.3280     1.4590    -0.3800 ca         1 T8A      -0.096300
      9 C08         -1.6490     2.8130    -0.4530 ca         1 T8A      -0.104000
     10 C09         -0.8220     3.7730     0.1050 ca         1 T8A      -0.106000
     11 C11          0.6710     2.0370     0.8210 ca         1 T8A      -0.099000
     12 C12         -0.1490     1.0620     0.2520 ca         1 T8A      -0.070300
     13 C14          1.6990    -0.6570     0.1070 ca         1 T8A      -0.083300
     14 C16          3.7830    -1.6970     0.7570 ca         1 T8A      -0.110000
     15 C18          3.6630    -0.4400    -1.2830 ca         1 T8A      -0.110000
     16 C19          2.3250    -0.1690    -1.0390 ca         1 T8A      -0.103000
     17 N05         -2.0070    -0.8800    -0.4950 n          1 T8A      -0.407800
     18 O01         -4.0700    -1.1360     0.3810 o          1 T8A      -0.598100
     19 H101         0.9960     4.1200     1.1990 ha         1 T8A       0.114000
     20 H131         0.0040    -0.7370     1.3750 hc         1 T8A       0.064700
     21 H151         1.9680    -1.8090     1.8940 ha         1 T8A       0.114000
     22 H171         5.4430    -1.4140    -0.5740 ha         1 T8A       0.114000
     23 H201        -0.2950    -1.0700    -1.6350 h1         1 T8A       0.057700
     24 H202        -0.4650    -2.3050    -0.4090 h1         1 T8A       0.057700
     25 H031        -1.6430    -2.7600     1.4950 hc         1 T8A       0.060367
     26 H1          -3.3250    -3.2890     1.4020 hc         1 T8A       0.060367
     27 H032        -2.2240    -3.5930     0.0580 hc         1 T8A       0.060367
     28 H061        -3.3020     0.7190    -0.7770 h1         1 T8A       0.070700
     29 H062        -2.1620     0.4570    -2.0820 h1         1 T8A       0.070700
     30 H081        -2.5670     3.1150    -0.9450 ha         1 T8A       0.114000
     31 H091        -1.0890     4.8200     0.0430 ha         1 T8A       0.114000
     32 H111         1.5850     1.7370     1.3200 ha         1 T8A       0.118000
     33 H161         4.3460    -2.2930     1.4650 ha         1 T8A       0.114000
     34 H181         4.1360    -0.0500    -2.1760 ha         1 T8A       0.114000
     35 H191         1.7690     0.4380    -1.7440 ha         1 T8A       0.114000
     36 C02         -2.9310    -1.5560     0.2300 c          1 T8A       0.609100
@<TRIPOS>BOND
     1     1    10 ar  
     2     1    11 ar  
     3     1    19 1   
     4     2     5 1   
     5     2    12 1   
     6     2    13 1   
     7     2    20 1   
     8     3    13 ar  
     9     3    14 ar  
    10     3    21 1   
    11     4    14 ar  
    12     4    15 ar  
    13     4    22 1   
    14     5    17 1   
    15     5    23 1   
    16     5    24 1   
    17     6    25 1   
    18     6    26 1   
    19     6    27 1   
    20     6    36 1   
    21     7     8 1   
    22     7    17 1   
    23     7    28 1   
    24     7    29 1   
    25     8     9 ar  
    26     8    12 ar  
    27     9    10 ar  
    28     9    30 1   
    29    10    31 1   
    30    11    12 ar  
    31    11    32 1   
    32    13    16 ar  
    33    14    33 1   
    34    15    16 ar  
    35    15    34 1   
    36    16    35 1   
    37    17    36 1   
    38    18    36 2   
@<TRIPOS>SUBSTRUCTURE
     1 T8A         1 TEMP              0 ****  ****    0 ROOT
