@<TRIPOS>MOLECULE
T8B
   67    71     1     0     0
SMALL
No Charge or Current Charge


@<TRIPOS>ATOM
      1 O1          -3.9830     3.9630     1.0670 o          1 T8B      -0.710000
      2 C1          -3.2900     4.0000     0.0630 c          1 T8B       0.731000
      3 O2          -2.5370     4.9230    -0.2080 o          1 T8B      -0.710000
      4 C2          -3.2520     2.7550    -0.8280 c3         1 T8B      -0.212100
      5 C3          -2.1510     1.8150    -0.3300 ca         1 T8B       0.081700
      6 C4          -0.8360     2.0550    -0.7540 ca         1 T8B      -0.168000
      7 C5           0.2330     1.2590    -0.3130 ca         1 T8B       0.039000
      8 C6           1.5180     1.5590    -0.7760 ca         1 T8B      -0.132000
      9 C7           2.6220     0.7960    -0.3770 ca         1 T8B       0.012000
     10 C8           3.8820     1.1350    -0.8870 ca         1 T8B      -0.112000
     11 C9           5.0200     0.4090    -0.5240 ca         1 T8B      -0.009800
     12 C10          6.3050     0.7810    -1.0650 cc         1 T8B      -0.144200
     13 C11          7.4280     0.0550    -0.7090 cd         1 T8B       0.017900
     14 C12          8.7750     0.4240    -1.2580 c          1 T8B       0.618300
     15 O3           8.9520     1.3610    -2.0300 o          1 T8B      -0.488000
     16 O4           9.8010    -0.3800    -0.8210 os         1 T8B      -0.405100
     17 C13         11.1330    -0.1060    -1.2930 c3         1 T8B       0.149900
     18 O5           7.3720    -1.0290     0.1550 os         1 T8B      -0.308200
     19 C14          6.1700    -1.4260     0.7000 c          1 T8B       0.705700
     20 O6           6.1320    -2.3870     1.4590 o          1 T8B      -0.561000
     21 C15          4.9160    -0.6690     0.3490 ca         1 T8B      -0.381600
     22 C16          3.6450    -1.0220     0.8750 ca         1 T8B       0.307100
     23 O7           3.5780    -2.0990     1.7040 oh         1 T8B      -0.516100
     24 C17          2.4710    -0.2820     0.5230 ca         1 T8B      -0.138000
     25 C18          1.1580    -0.5640     1.0230 ca         1 T8B       0.200100
     26 O8           0.9880    -1.5360     1.9800 os         1 T8B      -0.360100
     27 C19          1.0160    -1.1530     3.3660 c3         1 T8B       0.165900
     28 C20          0.0230     0.1860     0.5790 ca         1 T8B      -0.100000
     29 C21         -1.3210    -0.0820     0.9810 ca         1 T8B       0.125100
     30 O9          -1.6400    -1.1670     1.7620 os         1 T8B      -0.351100
     31 C22         -1.8930    -2.4320     1.1290 c3         1 T8B       0.157900
     32 C23         -2.3920     0.7290     0.5420 ca         1 T8B      -0.130600
     33 C24         -3.7770     0.3970     1.0100 c          1 T8B       0.604900
     34 O10         -4.1110     0.6210     2.1670 o          1 T8B      -0.466100
     35 C25         -4.6870    -0.2150    -0.0070 ce         1 T8B      -0.365200
     36 C26         -5.9870    -0.5980     0.1450 cf         1 T8B       0.214900
     37 O11         -6.5860    -0.4410     1.3280 oh         1 T8B      -0.480100
     38 C27         -6.8540    -1.2310    -0.8940 ca         1 T8B      -0.143800
     39 C28         -6.2440    -1.8720    -2.0020 ca         1 T8B      -0.046000
     40 C29         -7.0130    -2.4790    -3.0070 ca         1 T8B      -0.155000
     41 C30         -8.4110    -2.4670    -2.9320 ca         1 T8B      -0.062000
     42 C31         -9.0380    -1.8490    -1.8430 ca         1 T8B      -0.213000
     43 C32         -8.2780    -1.2400    -0.8300 ca         1 T8B       0.156100
     44 O12         -8.9560    -0.6570     0.2030 oh         1 T8B      -0.521100
     45 H2          -4.2160     2.2410    -0.7830 hc         1 T8B       0.042200
     46 H3          -2.9870     3.0420    -1.8520 hc         1 T8B       0.042200
     47 H4          -0.6410     2.8850    -1.4300 ha         1 T8B       0.118000
     48 H5           1.6600     2.3890    -1.4640 ha         1 T8B       0.118000
     49 H6           3.9780     1.9730    -1.5750 ha         1 T8B       0.118000
     50 H7           6.3990     1.6230    -1.7470 ha         1 T8B       0.215000
     51 H8          11.8450    -0.8230    -0.8650 h1         1 T8B       0.048367
     52 H9          11.1860    -0.1870    -2.3870 h1         1 T8B       0.048367
     53 H10         11.4520     0.9040    -1.0020 h1         1 T8B       0.048367
     54 H11          4.5040    -2.4360     1.7880 ho         1 T8B       0.518000
     55 H12          1.9830    -0.7040     3.6250 h1         1 T8B       0.039700
     56 H13          0.2280    -0.4210     3.5840 h1         1 T8B       0.039700
     57 H14          0.8590    -2.0290     4.0070 h1         1 T8B       0.039700
     58 H15         -2.1140    -3.1980     1.8820 h1         1 T8B       0.029033
     59 H16         -2.7500    -2.3610     0.4480 h1         1 T8B       0.029033
     60 H17         -1.0190    -2.7590     0.5510 h1         1 T8B       0.029033
     61 H18         -4.2190    -0.3390    -0.9770 ha         1 T8B       0.185000
     62 H19         -7.5430    -0.5940     1.1400 ho         1 T8B       0.463000
     63 H20         -5.1620    -1.9250    -2.0900 ha         1 T8B       0.126000
     64 H21         -6.5210    -2.9660    -3.8460 ha         1 T8B       0.116000
     65 H22         -9.0050    -2.9380    -3.7130 ha         1 T8B       0.108000
     66 H23        -10.1250    -1.8490    -1.7910 ha         1 T8B       0.112000
     67 H24         -9.9180    -0.7230     0.0160 ho         1 T8B       0.469000
@<TRIPOS>BOND
     1     1     2 1   
     2     2     3 1   
     3     2     4 1   
     4     4     5 1   
     5     4    45 1   
     6     4    46 1   
     7     5     6 ar  
     8     5    32 ar  
     9     6     7 ar  
    10     6    47 1   
    11     7     8 ar  
    12     7    28 ar  
    13     8     9 ar  
    14     8    48 1   
    15     9    10 ar  
    16     9    24 ar  
    17    10    11 ar  
    18    10    49 1   
    19    11    12 1   
    20    11    21 ar  
    21    12    13 2   
    22    12    50 1   
    23    13    14 1   
    24    13    18 1   
    25    14    15 2   
    26    14    16 1   
    27    16    17 1   
    28    17    51 1   
    29    17    52 1   
    30    17    53 1   
    31    18    19 1   
    32    19    20 2   
    33    19    21 1   
    34    21    22 ar  
    35    22    23 1   
    36    22    24 ar  
    37    23    54 1   
    38    24    25 ar  
    39    25    26 1   
    40    25    28 ar  
    41    26    27 1   
    42    27    55 1   
    43    27    56 1   
    44    27    57 1   
    45    28    29 ar  
    46    29    30 1   
    47    29    32 ar  
    48    30    31 1   
    49    31    58 1   
    50    31    59 1   
    51    31    60 1   
    52    32    33 1   
    53    33    34 2   
    54    33    35 1   
    55    35    36 2   
    56    35    61 1   
    57    36    37 1   
    58    36    38 1   
    59    37    62 1   
    60    38    39 ar  
    61    38    43 ar  
    62    39    40 ar  
    63    39    63 1   
    64    40    41 ar  
    65    40    64 1   
    66    41    42 ar  
    67    41    65 1   
    68    42    43 ar  
    69    42    66 1   
    70    43    44 1   
    71    44    67 1   
@<TRIPOS>SUBSTRUCTURE
     1 T8B         1 TEMP              0 ****  ****    0 ROOT
