@<TRIPOS>MOLECULE
T8B
   67    71     1     0     0
SMALL
abcg2


@<TRIPOS>ATOM
      1 O1          -4.7310     4.4730     0.2410 o          1 T8B      -0.710000
      2 C1          -3.7160     3.7880     0.4730 c          1 T8B       0.731000
      3 O2          -2.9830     3.8380     1.4730 o          1 T8B      -0.710000
      4 C2          -3.3270     2.7880    -0.6490 c3         1 T8B      -0.212100
      5 C3          -2.1860     1.8950    -0.2920 ca         1 T8B       0.081700
      6 C4          -0.9280     2.1430    -0.7500 ca         1 T8B      -0.168000
      7 C5           0.1820     1.3410    -0.3800 ca         1 T8B       0.039000
      8 C6           1.4550     1.6530    -0.8480 ca         1 T8B      -0.132000
      9 C7           2.5660     0.9050    -0.4970 ca         1 T8B       0.012000
     10 C8           3.8420     1.2580    -1.0120 ca         1 T8B      -0.112000
     11 C9           4.9460     0.5430    -0.6690 ca         1 T8B      -0.009800
     12 C10          6.2600     0.8570    -1.1580 cc         1 T8B      -0.144200
     13 C11          7.3050     0.1130    -0.7870 cd         1 T8B       0.017900
     14 C12          8.6850     0.3810    -1.2560 c          1 T8B       0.618300
     15 O3           8.9510     1.2920    -2.0000 o          1 T8B      -0.488000
     16 O4           9.5500    -0.4830    -0.7720 os         1 T8B      -0.405100
     17 C13         10.9180    -0.3320    -1.1620 c3         1 T8B       0.149900
     18 O5           7.1890    -0.9530     0.0510 os         1 T8B      -0.308200
     19 C14          6.0060    -1.3350     0.5600 c          1 T8B       0.705700
     20 O6           6.0170    -2.3090     1.2930 o          1 T8B      -0.561000
     21 C15          4.8310    -0.5790     0.2100 ca         1 T8B      -0.381600
     22 C16          3.5970    -0.9600     0.7350 ca         1 T8B       0.307100
     23 O7           3.4950    -2.0070     1.5240 oh         1 T8B      -0.516100
     24 C17          2.4170    -0.2050     0.4000 ca         1 T8B      -0.138000
     25 C18          1.1350    -0.5110     0.8950 ca         1 T8B       0.200100
     26 O8           0.9920    -1.5220     1.7730 os         1 T8B      -0.360100
     27 C19          1.0550    -1.1440     3.1430 c3         1 T8B       0.165900
     28 C20         -0.0010     0.2180     0.4880 ca         1 T8B      -0.100000
     29 C21         -1.3520    -0.0660     0.8960 ca         1 T8B       0.125100
     30 O9          -1.6540    -1.1580     1.6450 os         1 T8B      -0.351100
     31 C22         -1.8060    -2.3640     0.9090 c3         1 T8B       0.157900
     32 C23         -2.3840     0.7560     0.5410 ca         1 T8B      -0.130600
     33 C24         -3.7620     0.4280     1.0580 c          1 T8B       0.604900
     34 O10         -4.0640     0.7140     2.2020 o          1 T8B      -0.466100
     35 C25         -4.6360    -0.2150     0.0970 ce         1 T8B      -0.365200
     36 C26         -5.9210    -0.5940     0.3130 cf         1 T8B       0.214900
     37 O11         -6.5150    -0.3400     1.4710 oh         1 T8B      -0.480100
     38 C27         -6.6760    -1.3090    -0.7360 ca         1 T8B      -0.143800
     39 C28         -6.0670    -2.3580    -1.4280 ca         1 T8B      -0.046000
     40 C29         -6.7340    -3.0490    -2.4240 ca         1 T8B      -0.155000
     41 C30         -8.0360    -2.6880    -2.7440 ca         1 T8B      -0.062000
     42 C31         -8.6620    -1.6490    -2.0760 ca         1 T8B      -0.213000
     43 C32         -7.9920    -0.9570    -1.0720 ca         1 T8B       0.156100
     44 O12         -8.5540     0.0730    -0.4140 oh         1 T8B      -0.521100
     45 H2          -4.2130     2.2060    -0.9200 hc         1 T8B       0.042200
     46 H3          -3.0710     3.3660    -1.5420 hc         1 T8B       0.042200
     47 H4          -0.7450     2.9860    -1.4060 ha         1 T8B       0.118000
     48 H5           1.5800     2.5030    -1.5070 ha         1 T8B       0.118000
     49 H6           3.9220     2.1030    -1.6830 ha         1 T8B       0.118000
     50 H7           6.4070     1.6920    -1.8280 ha         1 T8B       0.215000
     51 H8          11.4550    -1.1340    -0.6670 h1         1 T8B       0.048367
     52 H9          11.0330    -0.4270    -2.2410 h1         1 T8B       0.048367
     53 H10         11.3160     0.6290    -0.8380 h1         1 T8B       0.048367
     54 H11          4.3960    -2.3940     1.6390 ho         1 T8B       0.518000
     55 H12          2.0380    -0.7460     3.4020 h1         1 T8B       0.039700
     56 H13          0.2950    -0.4000     3.3910 h1         1 T8B       0.039700
     57 H14          0.8710    -2.0420     3.7280 h1         1 T8B       0.039700
     58 H15         -1.9920    -3.1560     1.6310 h1         1 T8B       0.029033
     59 H16         -2.6570    -2.3030     0.2240 h1         1 T8B       0.029033
     60 H17         -0.9130    -2.6150     0.3350 h1         1 T8B       0.029033
     61 H18         -4.2280    -0.4080    -0.8860 ha         1 T8B       0.185000
     62 H19         -7.4100    -0.6970     1.4960 ho         1 T8B       0.463000
     63 H20         -5.0580    -2.6420    -1.1600 ha         1 T8B       0.126000
     64 H21         -6.2450    -3.8640    -2.9390 ha         1 T8B       0.116000
     65 H22         -8.5750    -3.2160    -3.5200 ha         1 T8B       0.108000
     66 H23         -9.6750    -1.3670    -2.3380 ha         1 T8B       0.112000
     67 H24         -9.4660     0.2030    -0.6970 ho         1 T8B       0.469000
@<TRIPOS>BOND
     1     1     2 1   
     2     2     3 1   
     3     2     4 1   
     4     4     5 1   
     5     4    45 1   
     6     4    46 1   
     7     5     6 ar  
     8     5    32 ar  
     9     6     7 ar  
    10     6    47 1   
    11     7     8 ar  
    12     7    28 ar  
    13     8     9 ar  
    14     8    48 1   
    15     9    10 ar  
    16     9    24 ar  
    17    10    11 ar  
    18    10    49 1   
    19    11    12 1   
    20    11    21 ar  
    21    12    13 2   
    22    12    50 1   
    23    13    14 1   
    24    13    18 1   
    25    14    15 2   
    26    14    16 1   
    27    16    17 1   
    28    17    51 1   
    29    17    52 1   
    30    17    53 1   
    31    18    19 1   
    32    19    20 2   
    33    19    21 1   
    34    21    22 ar  
    35    22    23 1   
    36    22    24 ar  
    37    23    54 1   
    38    24    25 ar  
    39    25    26 1   
    40    25    28 ar  
    41    26    27 1   
    42    27    55 1   
    43    27    56 1   
    44    27    57 1   
    45    28    29 ar  
    46    29    30 1   
    47    29    32 ar  
    48    30    31 1   
    49    31    58 1   
    50    31    59 1   
    51    31    60 1   
    52    32    33 1   
    53    33    34 2   
    54    33    35 1   
    55    35    36 2   
    56    35    61 1   
    57    36    37 1   
    58    36    38 1   
    59    37    62 1   
    60    38    39 ar  
    61    38    43 ar  
    62    39    40 ar  
    63    39    63 1   
    64    40    41 ar  
    65    40    64 1   
    66    41    42 ar  
    67    41    65 1   
    68    42    43 ar  
    69    42    66 1   
    70    43    44 1   
    71    44    67 1   
@<TRIPOS>SUBSTRUCTURE
     1 T8B         1 TEMP              0 ****  ****    0 ROOT
