@<TRIPOS>MOLECULE
T8D
   31    32     1     0     0
SMALL
abcg2


@<TRIPOS>ATOM
      1 N1           5.6080    -5.4050    24.3980 n3         1 T8D      -0.735500
      2 C4           6.6580    -4.4330    24.0560 c6         1 T8D       0.173800
      3 C5           7.4170    -4.9390    22.8360 c6         1 T8D       0.102000
      4 C6           4.0360    -3.8880    26.0380 cc         1 T8D      -0.481500
      5 C7           4.4910    -2.6310    26.3420 cd         1 T8D       0.012000
      6 C8           3.4770    -1.6470    26.2450 cd         1 T8D      -0.150000
      7 N            6.4980    -5.1940    21.7360 n          1 T8D      -0.422800
      8 C            7.6990    -3.6630    20.2370 c3         1 T8D      -0.173100
      9 O            5.7260    -4.8690    19.6330 o          1 T8D      -0.605100
     10 C1           6.5600    -4.6200    20.5080 c          1 T8D       0.604100
     11 C2           5.4310    -6.1260    22.0750 c6         1 T8D       0.102000
     12 C3           4.6610    -5.6350    23.2930 c6         1 T8D       0.173800
     13 C9           2.2820    -2.1890    25.8590 cc         1 T8D       0.004000
     14 O1           4.0980    -6.4620    26.0570 o          1 T8D      -0.539500
     15 O2           6.1160    -5.1970    26.8140 o          1 T8D      -0.539500
     16 S            4.9970    -5.3430    25.9190 sy         1 T8D       1.227600
     17 S1           2.3580    -3.8940    25.6130 ss         1 T8D       0.358000
     18 CL           0.8000    -1.3510    25.6330 cl         1 T8D      -0.131000
     19 H8           6.2130    -3.4550    23.8380 h1         1 T8D       0.064450
     20 H7           7.3390    -4.3360    24.8970 h1         1 T8D       0.064450
     21 H10          8.1610    -4.2030    22.5530 h1         1 T8D       0.068700
     22 H9           7.9330    -5.8690    23.0930 h1         1 T8D       0.068700
     23 H11          5.5120    -2.4250    26.6300 ha         1 T8D       0.151000
     24 H12          3.6170    -0.5970    26.4530 ha         1 T8D       0.152000
     25 H            7.6140    -3.3210    19.2090 hc         1 T8D       0.062700
     26 H1           7.6600    -2.8000    20.9050 hc         1 T8D       0.062700
     27 H2           8.6670    -4.1480    20.3750 hc         1 T8D       0.062700
     28 H4           4.7610    -6.2130    21.2260 h1         1 T8D       0.068700
     29 H3           5.8670    -7.1060    22.2890 h1         1 T8D       0.068700
     30 H6           4.1340    -4.7060    23.0480 h1         1 T8D       0.064450
     31 H5           3.9370    -6.3860    23.5980 h1         1 T8D       0.064450
@<TRIPOS>BOND
     1     1     2 1   
     2     1    12 1   
     3     1    16 1   
     4     2     3 1   
     5     2    19 1   
     6     2    20 1   
     7     3     7 1   
     8     3    21 1   
     9     3    22 1   
    10     4     5 2   
    11     4    16 1   
    12     4    17 1   
    13     5     6 1   
    14     5    23 1   
    15     6    13 2   
    16     6    24 1   
    17     7    10 1   
    18     7    11 1   
    19     8    10 1   
    20     8    25 1   
    21     8    26 1   
    22     8    27 1   
    23     9    10 2   
    24    11    12 1   
    25    11    28 1   
    26    11    29 1   
    27    12    30 1   
    28    12    31 1   
    29    13    17 1   
    30    13    18 1   
    31    14    16 2   
    32    15    16 2   
@<TRIPOS>SUBSTRUCTURE
     1 T8D         1 TEMP              0 ****  ****    0 ROOT
