@<TRIPOS>MOLECULE
T8D
   31    32     1     0     0
SMALL
No Charge or Current Charge


@<TRIPOS>ATOM
      1 N1           5.6160    -5.4870    24.4230 n3         1 T8D      -0.735500
      2 C4           6.4810    -4.3270    24.0950 c6         1 T8D       0.173800
      3 C5           7.2360    -4.5110    22.7520 c6         1 T8D       0.102000
      4 C6           4.0140    -3.9270    26.1290 cc         1 T8D      -0.481500
      5 C7           4.4810    -2.6950    26.5240 cd         1 T8D       0.012000
      6 C8           3.4700    -1.6960    26.5300 cd         1 T8D      -0.150000
      7 N            6.3820    -4.9460    21.6000 n          1 T8D      -0.422800
      8 C            8.0060    -3.9480    19.9270 c3         1 T8D      -0.173100
      9 O            6.3750    -5.6180    19.4050 o          1 T8D      -0.605100
     10 C1           6.8770    -4.9200    20.2770 c          1 T8D       0.604100
     11 C2           5.3020    -5.9150    21.9600 c6         1 T8D       0.102000
     12 C3           4.6250    -5.6690    23.3340 c6         1 T8D       0.173800
     13 C9           2.2440    -2.1720    26.1450 cc         1 T8D       0.004000
     14 O1           4.0030    -6.5460    26.0680 o          1 T8D      -0.539500
     15 O2           6.0830    -5.3390    26.9040 o          1 T8D      -0.539500
     16 S            4.9430    -5.4240    25.9840 sy         1 T8D       1.227600
     17 S1           2.2980    -3.8910    25.7650 ss         1 T8D       0.358000
     18 Cl           0.7840    -1.2370    26.0350 cl         1 T8D      -0.131000
     19 H8           5.8780    -3.4080    24.0320 h1         1 T8D       0.064450
     20 H7           7.2300    -4.1610    24.8830 h1         1 T8D       0.064450
     21 H10          7.7350    -3.5610    22.5210 h1         1 T8D       0.068700
     22 H9           8.0240    -5.2640    22.8990 h1         1 T8D       0.068700
     23 H11          5.5150    -2.5000    26.8030 ha         1 T8D       0.151000
     24 H12          3.6490    -0.6630    26.8100 ha         1 T8D       0.152000
     25 H            8.2340    -3.9400    18.8560 hc         1 T8D       0.062700
     26 H1           7.7470    -2.9480    20.2910 hc         1 T8D       0.062700
     27 H2           8.8940    -4.2000    20.5170 hc         1 T8D       0.062700
     28 H4           4.5230    -5.9040    21.1850 h1         1 T8D       0.068700
     29 H3           5.7350    -6.9250    21.9650 h1         1 T8D       0.068700
     30 H6           3.9800    -4.7820    23.2510 h1         1 T8D       0.064450
     31 H5           3.9650    -6.5250    23.5370 h1         1 T8D       0.064450
@<TRIPOS>BOND
     1     1     2 1   
     2     1    12 1   
     3     1    16 1   
     4     2     3 1   
     5     2    19 1   
     6     2    20 1   
     7     3     7 1   
     8     3    21 1   
     9     3    22 1   
    10     4     5 2   
    11     4    16 1   
    12     4    17 1   
    13     5     6 1   
    14     5    23 1   
    15     6    13 2   
    16     6    24 1   
    17     7    10 1   
    18     7    11 1   
    19     8    10 1   
    20     8    25 1   
    21     8    26 1   
    22     8    27 1   
    23     9    10 2   
    24    11    12 1   
    25    11    28 1   
    26    11    29 1   
    27    12    30 1   
    28    12    31 1   
    29    13    17 1   
    30    13    18 1   
    31    14    16 2   
    32    15    16 2   
@<TRIPOS>SUBSTRUCTURE
     1 T8D         1 TEMP              0 ****  ****    0 ROOT
