@<TRIPOS>MOLECULE
T8E
   28    28     1     0     0
SMALL
abcg2


@<TRIPOS>ATOM
      1 C10         16.6050    10.5990    35.4710 ca         1 T8E       0.008000
      2 C13         14.8670     8.6460    34.4480 ca         1 T8E      -0.205600
      3 C15         17.1110     9.4240    34.9010 ca         1 T8E      -0.165500
      4 C17         14.4650     6.3910    33.2700 c3         1 T8E      -0.192100
      5 C01         18.5920    14.0380    38.3170 c3         1 T8E      -0.080100
      6 C02         18.6080    13.4840    36.9010 c3         1 T8E       0.018300
      7 C07         17.3300    12.7190    36.5730 c          1 T8E       0.617100
      8 C11         15.2190    10.7930    35.5280 ca         1 T8E      -0.165500
      9 C12         14.3740     9.8220    35.0210 ca         1 T8E      -0.034000
     10 C14         16.2540     8.4640    34.3960 ca         1 T8E      -0.034000
     11 C16         13.9140     7.6370    33.9180 c          1 T8E       0.581700
     12 N09         17.5390    11.5230    35.9540 ns         1 T8E      -0.141000
     13 O08         16.2280    13.1770    36.8400 o          1 T8E      -0.554100
     14 O18         12.7050     7.8090    34.0040 o          1 T8E      -0.531100
     15 S03         18.7150    14.8150    35.6150 sh         1 T8E      -0.412800
     16 H1          18.1820     9.2710    34.8560 ha         1 T8E       0.133500
     17 H2          13.6420     5.7730    32.9210 hc         1 T8E       0.060700
     18 H3          15.1140     6.6470    32.4300 hc         1 T8E       0.060700
     19 H4          15.0690     5.8270    33.9830 hc         1 T8E       0.060700
     20 H6          19.4980    14.6130    38.5030 hc         1 T8E       0.055700
     21 H7          17.7280    14.6840    38.4670 hc         1 T8E       0.055700
     22 H8          19.4740    12.8430    36.7500 h1         1 T8E       0.062700
     23 H9          14.8190    11.6910    35.9670 ha         1 T8E       0.133500
     24 H10         13.3040     9.9730    35.0630 ha         1 T8E       0.126500
     25 H11         16.6760     7.5690    33.9620 ha         1 T8E       0.126500
     26 H12         18.5050    11.2640    35.8130 hn         1 T8E       0.151000
     27 H13         20.0360    15.0220    35.7420 hs         1 T8E       0.207800
     28 H5          18.5470    13.2170    39.0380 hc         1 T8E       0.055700
@<TRIPOS>BOND
     1     1     3 ar  
     2     1     8 ar  
     3     1    12 1   
     4     2     9 ar  
     5     2    10 ar  
     6     2    11 1   
     7     3    10 ar  
     8     3    16 1   
     9     4    11 1   
    10     4    17 1   
    11     4    18 1   
    12     4    19 1   
    13     5     6 1   
    14     5    20 1   
    15     5    21 1   
    16     5    28 1   
    17     6     7 1   
    18     6    15 1   
    19     6    22 1   
    20     7    12 1   
    21     7    13 2   
    22     8     9 ar  
    23     8    23 1   
    24     9    24 1   
    25    10    25 1   
    26    11    14 2   
    27    12    26 1   
    28    15    27 1   
@<TRIPOS>SUBSTRUCTURE
     1 T8E         1 TEMP              0 ****  ****    0 ROOT
