@<TRIPOS>MOLECULE
T8E
   28    28     1     0     0
SMALL
No Charge or Current Charge


@<TRIPOS>ATOM
      1 C10         16.5440    10.6460    35.4140 ca         1 T8E       0.008000
      2 C13         14.8170     8.6060    34.4310 ca         1 T8E      -0.205600
      3 C15         17.0670     9.4610    34.8680 ca         1 T8E      -0.165500
      4 C17         14.4420     6.2460    33.3190 c3         1 T8E      -0.192100
      5 C01         18.7070    13.9430    38.3300 c3         1 T8E      -0.080100
      6 C02         18.6350    13.5780    36.8310 c3         1 T8E       0.018300
      7 C07         17.3020    12.8680    36.4690 c          1 T8E       0.617100
      8 C11         15.1440    10.8040    35.4660 ca         1 T8E      -0.165500
      9 C12         14.2920     9.7970    34.9800 ca         1 T8E      -0.034000
     10 C14         16.2210     8.4510    34.3810 ca         1 T8E      -0.034000
     11 C16         13.8740     7.5360    33.9150 c          1 T8E       0.581700
     12 N09         17.4700    11.6180    35.8840 ns         1 T8E      -0.141000
     13 O08         16.2100    13.3820    36.6950 o          1 T8E      -0.554100
     14 O18         12.6590     7.6910    33.9680 o          1 T8E      -0.531100
     15 S03         18.9180    15.0560    35.7280 sh         1 T8E      -0.412800
     16 H1          18.1450     9.3170    34.8170 ha         1 T8E       0.133500
     17 H2          13.6590     5.5570    32.9840 hc         1 T8E       0.060700
     18 H3          15.1280     6.5000    32.5030 hc         1 T8E       0.060700
     19 H4          15.1030     5.7730    34.0540 hc         1 T8E       0.060700
     20 H6          19.6810    14.3830    38.5730 hc         1 T8E       0.055700
     21 H7          17.9270    14.6680    38.5930 hc         1 T8E       0.055700
     22 H8          19.4490    12.8710    36.6240 h1         1 T8E       0.062700
     23 H9          14.6890    11.6990    35.8770 ha         1 T8E       0.133500
     24 H10         13.2160     9.9500    35.0350 ha         1 T8E       0.126500
     25 H11         16.6750     7.5530    33.9680 ha         1 T8E       0.126500
     26 H12         18.4370    11.3440    35.7680 hn         1 T8E       0.151000
     27 H13         20.1370    15.3860    36.2230 hs         1 T8E       0.207800
     28 H5          18.5720    13.0500    38.9530 hc         1 T8E       0.055700
@<TRIPOS>BOND
     1     1     3 ar  
     2     1     8 ar  
     3     1    12 1   
     4     2     9 ar  
     5     2    10 ar  
     6     2    11 1   
     7     3    10 ar  
     8     3    16 1   
     9     4    11 1   
    10     4    17 1   
    11     4    18 1   
    12     4    19 1   
    13     5     6 1   
    14     5    20 1   
    15     5    21 1   
    16     5    28 1   
    17     6     7 1   
    18     6    15 1   
    19     6    22 1   
    20     7    12 1   
    21     7    13 2   
    22     8     9 ar  
    23     8    23 1   
    24     9    24 1   
    25    10    25 1   
    26    11    14 2   
    27    12    26 1   
    28    15    27 1   
@<TRIPOS>SUBSTRUCTURE
     1 T8E         1 TEMP              0 ****  ****    0 ROOT
