@<TRIPOS>MOLECULE
T8G
   52    53     1     0     0
SMALL
abcg2


@<TRIPOS>ATOM
      1 C18         -5.3800     1.8710    -2.2980 c3         1 T8G      -0.127100
      2 C10         -2.4570    -1.4760     0.1170 ce         1 T8G       0.366300
      3 C11         -2.4620    -2.9420     0.5090 c          1 T8G       0.643700
      4 C12         -1.6960     0.7210    -0.2750 c5         1 T8G      -0.092700
      5 N1          -3.5240    -0.7970     0.0180 n2         1 T8G      -0.559900
      6 C13         -1.4040     1.3850     1.0630 c3         1 T8G      -0.085100
      7 C14         -3.2050     0.5090    -0.5490 c5         1 T8G       0.101500
      8 C15         -4.1400     1.6220    -0.0730 c3         1 T8G      -0.152700
      9 S1           0.2590    -1.1950     0.5830 ss         1 T8G      -0.267000
     10 C1           2.8480    -0.5120     0.2040 c          1 T8G       0.609100
     11 O1           3.0340    -1.0260     1.2780 o          1 T8G      -0.468000
     12 C16         -4.4250     1.5480     1.4100 c          1 T8G       0.601900
     13 C17         -5.4990     1.6930    -0.7930 c3         1 T8G       0.185300
     14 O2           3.7930    -0.0480    -0.5930 os         1 T8G      -0.458100
     15 C2           5.1670    -0.0560    -0.1470 c6         1 T8G       0.176300
     16 O3          -3.1690    -3.2710     1.4740 o          1 T8G      -0.689500
     17 C3           6.0430    -0.1910    -1.3790 c6         1 T8G      -0.087400
     18 O4          -1.7560    -3.6590    -0.2210 o          1 T8G      -0.689500
     19 C4           7.5180    -0.1430    -0.9860 c6         1 T8G      -0.072900
     20 O5          -4.8730     2.4730     2.0440 o          1 T8G      -0.572100
     21 C5           7.8470     1.1240    -0.2030 c6         1 T8G      -0.076400
     22 O6          -6.2290     0.5350    -0.4480 oh         1 T8G      -0.621000
     23 C6           6.9410     1.2730     1.0140 c6         1 T8G      -0.072900
     24 C7           5.4660     1.2220     0.6230 c6         1 T8G      -0.087400
     25 C8           1.4830    -0.2960    -0.3970 c3         1 T8G      -0.049400
     26 C9          -1.2200    -0.7410    -0.3570 c5         1 T8G      -0.041000
     27 H1          -6.3640     2.0560    -2.7320 hc         1 T8G       0.036033
     28 H2          -4.7490     2.7270    -2.5410 hc         1 T8G       0.036033
     29 H3          -4.9640     0.9910    -2.7900 hc         1 T8G       0.036033
     30 H4          -1.2520     1.3210    -1.0720 hc         1 T8G       0.033700
     31 H5          -1.8030     0.8200     1.9080 hc         1 T8G       0.036700
     32 H6          -0.3310     1.4810     1.2310 hc         1 T8G       0.036700
     33 H7          -1.8160     2.3940     1.0960 hc         1 T8G       0.036700
     34 H8          -3.3210     0.4190    -1.6350 h1         1 T8G       0.047700
     35 H9          -3.6610     2.5870    -0.2720 hc         1 T8G       0.053700
     36 H10         -4.2300     0.5790     1.8980 h4         1 T8G       0.042200
     37 H11         -5.9960     2.5890    -0.3970 h1         1 T8G       0.022700
     38 H12          5.3250    -0.9200     0.5050 h1         1 T8G       0.067700
     39 H14          5.8190    -1.1280    -1.8950 hc         1 T8G       0.052700
     40 H15          5.8240     0.6250    -2.0770 hc         1 T8G       0.052700
     41 H16          7.7650    -1.0220    -0.3820 hc         1 T8G       0.039950
     42 H17          8.1350    -0.2050    -1.8840 hc         1 T8G       0.039950
     43 H18          8.8950     1.1140     0.1060 hc         1 T8G       0.036200
     44 H19          7.7230     1.9940    -0.8570 hc         1 T8G       0.036200
     45 H20         -7.1220     0.6330    -0.7960 ho         1 T8G       0.425000
     46 H21          7.1550     0.4720     1.7300 hc         1 T8G       0.039950
     47 H22          7.1480     2.2120     1.5310 hc         1 T8G       0.039950
     48 H23          5.2190     2.0850    -0.0040 hc         1 T8G       0.052700
     49 H24          4.8370     1.2810     1.5140 hc         1 T8G       0.052700
     50 H25          1.4670    -0.6260    -1.4370 h1         1 T8G       0.076200
     51 H26          1.2800     0.7780    -0.3970 h1         1 T8G       0.076200
     52 H27         -1.0450    -1.0170    -1.4040 h1         1 T8G       0.080700
@<TRIPOS>BOND
     1     1    13 1   
     2     1    27 1   
     3     1    28 1   
     4     1    29 1   
     5     2     3 1   
     6     2     5 2   
     7     2    26 1   
     8     3    16 1   
     9     3    18 1   
    10     4     6 1   
    11     4     7 1   
    12     4    26 1   
    13     4    30 1   
    14     5     7 1   
    15     6    31 1   
    16     6    32 1   
    17     6    33 1   
    18     7     8 1   
    19     7    34 1   
    20     8    12 1   
    21     8    13 1   
    22     8    35 1   
    23     9    25 1   
    24     9    26 1   
    25    10    11 2   
    26    10    14 1   
    27    10    25 1   
    28    12    20 2   
    29    12    36 1   
    30    13    22 1   
    31    13    37 1   
    32    14    15 1   
    33    15    17 1   
    34    15    24 1   
    35    15    38 1   
    36    17    19 1   
    37    17    39 1   
    38    17    40 1   
    39    19    21 1   
    40    19    41 1   
    41    19    42 1   
    42    21    23 1   
    43    21    43 1   
    44    21    44 1   
    45    22    45 1   
    46    23    24 1   
    47    23    46 1   
    48    23    47 1   
    49    24    48 1   
    50    24    49 1   
    51    25    50 1   
    52    25    51 1   
    53    26    52 1   
@<TRIPOS>SUBSTRUCTURE
     1 T8G         1 TEMP              0 ****  ****    0 ROOT
