@<TRIPOS>MOLECULE
T8G
   52    53     1     0     0
SMALL
No Charge or Current Charge


@<TRIPOS>ATOM
      1 C18         -5.2270     1.8060    -2.5000 c3         1 T8G      -0.127100
      2 C10         -2.6250    -1.4990     0.5750 ce         1 T8G       0.366300
      3 C11         -2.7320    -3.0330     0.7460 c          1 T8G       0.643700
      4 C12         -1.7160     0.5640    -0.1250 c5         1 T8G      -0.092700
      5 N1          -3.6550    -0.6920     0.5240 n2         1 T8G      -0.559900
      6 C13         -1.3000     1.3610     1.1480 c3         1 T8G      -0.085100
      7 C14         -3.2570     0.4370    -0.3550 c5         1 T8G       0.101500
      8 C15         -4.1320     1.7180    -0.1410 c3         1 T8G      -0.152700
      9 S1           0.1810    -1.2950     0.8590 ss         1 T8G      -0.267000
     10 C1           2.9160    -0.7390     0.2620 c          1 T8G       0.609100
     11 O1           3.2210    -1.2860     1.3140 o          1 T8G      -0.468000
     12 C16         -4.4890     1.9440     1.3350 c          1 T8G       0.601900
     13 C17         -5.4430     1.7930    -0.9720 c3         1 T8G       0.185300
     14 O2           3.8170    -0.1810    -0.6070 os         1 T8G      -0.458100
     15 C2           5.2210    -0.1170    -0.2880 c6         1 T8G       0.176300
     16 O3          -3.7780    -3.5080     1.1820 o          1 T8G      -0.689500
     17 C3           6.0200     0.1980    -1.5780 c6         1 T8G      -0.087400
     18 O4          -1.7950    -3.7590     0.4240 o          1 T8G      -0.689500
     19 C4           7.5370     0.3270    -1.2890 c6         1 T8G      -0.072900
     20 O5          -4.1660     2.9520     1.9610 o          1 T8G      -0.572100
     21 C5           7.8100     1.3940    -0.2010 c6         1 T8G      -0.076400
     22 O6          -6.3210     0.7200    -0.6340 oh         1 T8G      -0.621000
     23 C6           7.0130     1.0910     1.0910 c6         1 T8G      -0.072900
     24 C7           5.4970     0.9590     0.8000 c6         1 T8G      -0.087400
     25 C8           1.4870    -0.6500    -0.2960 c3         1 T8G      -0.049400
     26 C9          -1.3730    -0.9650    -0.1350 c5         1 T8G      -0.041000
     27 H1          -6.1710     2.0190    -3.0170 hc         1 T8G       0.036033
     28 H2          -4.5090     2.5860    -2.7810 hc         1 T8G       0.036033
     29 H3          -4.8530     0.8430    -2.8670 hc         1 T8G       0.036033
     30 H4          -1.2390     1.0740    -0.9710 hc         1 T8G       0.033700
     31 H5          -1.7080     0.9150     2.0620 hc         1 T8G       0.036700
     32 H6          -0.2110     1.4170     1.2560 hc         1 T8G       0.036700
     33 H7          -1.6440     2.4000     1.0940 hc         1 T8G       0.036700
     34 H8          -3.4030     0.1160    -1.3950 h1         1 T8G       0.047700
     35 H9          -3.5360     2.5840    -0.4560 hc         1 T8G       0.053700
     36 H10         -5.0850     1.1390     1.8210 h4         1 T8G       0.042200
     37 H11         -5.9300     2.7440    -0.7170 h1         1 T8G       0.022700
     38 H12          5.5450    -1.1010     0.0840 h1         1 T8G       0.067700
     39 H14          5.8510    -0.5930    -2.3200 hc         1 T8G       0.052700
     40 H15          5.6490     1.1310    -2.0240 hc         1 T8G       0.052700
     41 H16          7.9360    -0.6440    -0.9630 hc         1 T8G       0.039950
     42 H17          8.0710     0.5900    -2.2120 hc         1 T8G       0.039950
     43 H18          8.8850     1.4320     0.0230 hc         1 T8G       0.036200
     44 H19          7.5350     2.3880    -0.5810 hc         1 T8G       0.036200
     45 H20         -7.0950     0.7840    -1.2330 ho         1 T8G       0.425000
     46 H21          7.3850     0.1620     1.5450 hc         1 T8G       0.039950
     47 H22          7.1830     1.8880     1.8290 hc         1 T8G       0.039950
     48 H23          5.1000     1.9280     0.4690 hc         1 T8G       0.052700
     49 H24          4.9720     0.7070     1.7300 hc         1 T8G       0.052700
     50 H25          1.4580    -1.2150    -1.2350 h1         1 T8G       0.076200
     51 H26          1.2850     0.4030    -0.5240 h1         1 T8G       0.076200
     52 H27         -1.2860    -1.3750    -1.1500 h1         1 T8G       0.080700
@<TRIPOS>BOND
     1     1    13 1   
     2     1    27 1   
     3     1    28 1   
     4     1    29 1   
     5     2     3 1   
     6     2     5 2   
     7     2    26 1   
     8     3    16 1   
     9     3    18 1   
    10     4     6 1   
    11     4     7 1   
    12     4    26 1   
    13     4    30 1   
    14     5     7 1   
    15     6    31 1   
    16     6    32 1   
    17     6    33 1   
    18     7     8 1   
    19     7    34 1   
    20     8    12 1   
    21     8    13 1   
    22     8    35 1   
    23     9    25 1   
    24     9    26 1   
    25    10    11 2   
    26    10    14 1   
    27    10    25 1   
    28    12    20 2   
    29    12    36 1   
    30    13    22 1   
    31    13    37 1   
    32    14    15 1   
    33    15    17 1   
    34    15    24 1   
    35    15    38 1   
    36    17    19 1   
    37    17    39 1   
    38    17    40 1   
    39    19    21 1   
    40    19    41 1   
    41    19    42 1   
    42    21    23 1   
    43    21    43 1   
    44    21    44 1   
    45    22    45 1   
    46    23    24 1   
    47    23    46 1   
    48    23    47 1   
    49    24    48 1   
    50    24    49 1   
    51    25    50 1   
    52    25    51 1   
    53    26    52 1   
@<TRIPOS>SUBSTRUCTURE
     1 T8G         1 TEMP              0 ****  ****    0 ROOT
