@<TRIPOS>MOLECULE
T8H
   53    56     1     0     0
SMALL
abcg2


@<TRIPOS>ATOM
      1 C10         -2.2400    -3.1060    83.7250 c          1 T8H       0.596600
      2 C15         -4.6250    -3.0220    84.3200 c5         1 T8H       0.101700
      3 C17         -1.3610    -0.6820    87.1170 c3         1 T8H       0.086300
      4 C20          6.1200    -5.4330    83.7780 c6         1 T8H      -0.073200
      5 C21          6.0050    -5.4520    85.2970 c6         1 T8H      -0.063400
      6 C22          4.6440    -6.0000    85.7010 c6         1 T8H      -0.181400
      7 C26         -5.3420    -3.8410    85.4120 c5         1 T8H      -0.088400
      8 C28         -6.9320    -2.5360    84.0280 c5         1 T8H      -0.076900
      9 C1           1.5270    -3.2680    83.8640 ca         1 T8H      -0.181600
     10 C2           1.7640    -2.4640    84.9800 ca         1 T8H      -0.002000
     11 C3           0.7300    -1.8880    85.6790 ca         1 T8H      -0.185000
     12 C4          -0.5900    -2.1240    85.2730 ca         1 T8H       0.143600
     13 C5          -0.8440    -2.9240    84.1430 ca         1 T8H      -0.218600
     14 C6           0.2260    -3.5200    83.4300 ca         1 T8H       0.084700
     15 C8          -2.9630    -1.8780    85.7380 c          1 T8H       0.621000
     16 C11         -0.0010    -4.4750    82.2880 c3         1 T8H      -0.055800
     17 C12          2.7200    -3.7670    83.1230 c          1 T8H       0.640900
     18 C18          3.7330    -4.5710    83.7850 ce         1 T8H      -0.486400
     19 C19          4.9640    -4.7340    83.1510 c2         1 T8H       0.280900
     20 C23          3.4770    -5.2920    85.0410 c          1 T8H       0.602300
     21 C27         -6.8470    -3.5240    85.2160 c5         1 T8H      -0.076900
     22 C29         -5.5610    -1.8570    83.9820 c5         1 T8H      -0.088400
     23 N7          -1.6420    -1.5730    85.9890 n          1 T8H      -0.309000
     24 N9          -3.2210    -2.6680    84.6260 n          1 T8H      -0.368400
     25 O13         -2.5710    -3.6140    82.6630 o          1 T8H      -0.529000
     26 O14          2.8700    -3.3970    81.9390 o          1 T8H      -0.597100
     27 O16         -3.8650    -1.4600    86.4500 o          1 T8H      -0.560000
     28 O24          5.1830    -4.2740    81.9470 oh         1 T8H      -0.541100
     29 O25          2.3570    -5.3920    85.5310 o          1 T8H      -0.539100
     30 H1          -4.5500    -3.6380    83.4300 h1         1 T8H       0.084700
     31 H2          -2.3020    -0.2830    87.4720 h1         1 T8H       0.058033
     32 H3          -0.8720    -1.2290    87.9250 h1         1 T8H       0.058033
     33 H4          -0.7180     0.1320    86.7890 h1         1 T8H       0.058033
     34 H6           7.0350    -4.9500    83.4330 hc         1 T8H       0.081700
     35 H7           6.8030    -6.0610    85.7230 hc         1 T8H       0.056200
     36 H8           6.1290    -4.4370    85.6830 hc         1 T8H       0.056200
     37 H9           4.5670    -7.0550    85.4120 hc         1 T8H       0.074200
     38 H10          4.4840    -5.9550    86.7780 hc         1 T8H       0.074200
     39 H11         -5.1210    -4.9020    85.3000 hc         1 T8H       0.057950
     40 H12         -5.0120    -3.5330    86.4000 hc         1 T8H       0.057950
     41 H13         -7.7490    -1.8220    84.1390 hc         1 T8H       0.043700
     42 H14         -7.1020    -3.0850    83.0980 hc         1 T8H       0.043700
     43 H15          2.7820    -2.2920    85.3060 ha         1 T8H       0.119000
     44 H16          0.9460    -1.2760    86.5390 ha         1 T8H       0.126000
     45 H17         -0.7800    -5.1930    82.5350 hc         1 T8H       0.061367
     46 H18         -0.3300    -3.9520    81.3890 hc         1 T8H       0.061367
     47 H19          0.9110    -5.0160    82.0530 hc         1 T8H       0.061367
     48 H22         -7.2520    -3.0650    86.1190 hc         1 T8H       0.043700
     49 H23         -7.4300    -4.4250    85.0240 hc         1 T8H       0.043700
     50 H24         -5.3280    -1.4180    83.0110 hc         1 T8H       0.057950
     51 H25         -5.4930    -1.0790    84.7420 hc         1 T8H       0.057950
     52 H26          4.3070    -3.8560    81.6400 ho         1 T8H       0.547000
     53 H5           6.1350    -6.4570    83.3840 hc         1 T8H       0.081700
@<TRIPOS>BOND
     1     1    13 1   
     2     1    24 1   
     3     1    25 2   
     4     2     7 1   
     5     2    22 1   
     6     2    24 1   
     7     2    30 1   
     8     3    23 1   
     9     3    31 1   
    10     3    32 1   
    11     3    33 1   
    12     4     5 1   
    13     4    19 1   
    14     4    34 1   
    15     4    53 1   
    16     5     6 1   
    17     5    35 1   
    18     5    36 1   
    19     6    20 1   
    20     6    37 1   
    21     6    38 1   
    22     7    21 1   
    23     7    39 1   
    24     7    40 1   
    25     8    21 1   
    26     8    22 1   
    27     8    41 1   
    28     8    42 1   
    29     9    10 ar  
    30     9    14 ar  
    31     9    17 1   
    32    10    11 ar  
    33    10    43 1   
    34    11    12 ar  
    35    11    44 1   
    36    12    13 ar  
    37    12    23 1   
    38    13    14 ar  
    39    14    16 1   
    40    15    23 1   
    41    15    24 1   
    42    15    27 2   
    43    16    45 1   
    44    16    46 1   
    45    16    47 1   
    46    17    18 1   
    47    17    26 2   
    48    18    19 2   
    49    18    20 1   
    50    19    28 1   
    51    20    29 2   
    52    21    48 1   
    53    21    49 1   
    54    22    50 1   
    55    22    51 1   
    56    28    52 1   
@<TRIPOS>SUBSTRUCTURE
     1 T8H         1 TEMP              0 ****  ****    0 ROOT
