@<TRIPOS>MOLECULE
T8H
   53    56     1     0     0
SMALL
No Charge or Current Charge


@<TRIPOS>ATOM
      1 C10         -2.3740    -3.2590    83.6450 c          1 T8H       0.596600
      2 C15         -4.7930    -3.1550    84.2120 c5         1 T8H       0.101700
      3 C17         -1.3490    -0.8540    87.0530 c3         1 T8H       0.086300
      4 C20          6.3430    -4.7470    84.0820 c6         1 T8H      -0.073200
      5 C21          6.0370    -5.1930    85.5270 c6         1 T8H      -0.063400
      6 C22          4.8520    -6.1790    85.5230 c6         1 T8H      -0.181400
      7 C26         -5.6090    -3.7920    85.3920 c5         1 T8H      -0.088400
      8 C28         -6.9800    -2.2010    84.1660 c5         1 T8H      -0.076900
      9 C1           1.4870    -3.5980    83.7300 ca         1 T8H      -0.181600
     10 C2           1.7570    -2.8820    84.9050 ca         1 T8H      -0.002000
     11 C3           0.7190    -2.3140    85.6410 ca         1 T8H      -0.185000
     12 C4          -0.6130    -2.3800    85.1850 ca         1 T8H       0.143600
     13 C5          -0.9170    -3.1430    84.0410 ca         1 T8H      -0.218600
     14 C6           0.1420    -3.7760    83.3070 ca         1 T8H       0.084700
     15 C8          -3.0300    -2.1350    85.7460 c          1 T8H       0.621000
     16 C11         -0.1430    -4.7160    82.1240 c3         1 T8H      -0.055800
     17 C12          2.6610    -4.1380    82.9530 c          1 T8H       0.640900
     18 C18          3.8340    -4.7030    83.6700 ce         1 T8H      -0.486400
     19 C19          5.0870    -4.3210    83.3390 c2         1 T8H       0.280900
     20 C23          3.6080    -5.5880    84.8480 c          1 T8H       0.602300
     21 C27         -6.8080    -2.8120    85.5830 c5         1 T8H      -0.076900
     22 C29         -5.5130    -1.8260    83.8360 c5         1 T8H      -0.088400
     23 N7          -1.6750    -1.8410    85.9840 n          1 T8H      -0.309000
     24 N9          -3.3490    -2.8590    84.5770 n          1 T8H      -0.368400
     25 O13         -2.7080    -3.6480    82.5340 o          1 T8H      -0.529000
     26 O14          2.7760    -3.8870    81.7590 o          1 T8H      -0.597100
     27 O16         -3.8870    -1.7290    86.5180 o          1 T8H      -0.560000
     28 O24          5.3480    -3.5220    82.2990 oh         1 T8H      -0.541100
     29 O25          2.4940    -5.8670    85.2610 o          1 T8H      -0.539100
     30 H1          -4.8730    -3.8480    83.3640 h1         1 T8H       0.084700
     31 H2          -2.2100    -0.2200    87.2990 h1         1 T8H       0.058033
     32 H3          -1.0280    -1.3830    87.9580 h1         1 T8H       0.058033
     33 H4          -0.5460    -0.1870    86.7170 h1         1 T8H       0.058033
     34 H6           7.0730    -3.9250    84.0980 hc         1 T8H       0.081700
     35 H7           6.9240    -5.6580    85.9790 hc         1 T8H       0.056200
     36 H8           5.7880    -4.3170    86.1440 hc         1 T8H       0.056200
     37 H9           5.1520    -7.0380    84.9090 hc         1 T8H       0.074200
     38 H10          4.5980    -6.5560    86.5220 hc         1 T8H       0.074200
     39 H11         -5.9710    -4.7830    85.0960 hc         1 T8H       0.057950
     40 H12         -5.0390    -3.9500    86.3140 hc         1 T8H       0.057950
     41 H13         -7.6440    -1.3290    84.1650 hc         1 T8H       0.043700
     42 H14         -7.3880    -2.9280    83.4530 hc         1 T8H       0.043700
     43 H15          2.7810    -2.7590    85.2550 ha         1 T8H       0.119000
     44 H16          0.9790    -1.8020    86.5620 ha         1 T8H       0.126000
     45 H17         -0.9680    -5.4010    82.3500 hc         1 T8H       0.061367
     46 H18         -0.3970    -4.1500    81.2210 hc         1 T8H       0.061367
     47 H19          0.6950    -5.3740    81.8780 hc         1 T8H       0.061367
     48 H22         -6.5800    -2.0370    86.3240 hc         1 T8H       0.043700
     49 H23         -7.7120    -3.3270    85.9270 hc         1 T8H       0.043700
     50 H24         -5.3720    -1.5630    82.7820 hc         1 T8H       0.057950
     51 H25         -5.1850    -0.9650    84.4290 hc         1 T8H       0.057950
     52 H26          4.4830    -3.4470    81.8220 ho         1 T8H       0.547000
     53 H5           6.8170    -5.5710    83.5320 hc         1 T8H       0.081700
@<TRIPOS>BOND
     1     1    13 1   
     2     1    24 1   
     3     1    25 2   
     4     2     7 1   
     5     2    22 1   
     6     2    24 1   
     7     2    30 1   
     8     3    23 1   
     9     3    31 1   
    10     3    32 1   
    11     3    33 1   
    12     4     5 1   
    13     4    19 1   
    14     4    34 1   
    15     4    53 1   
    16     5     6 1   
    17     5    35 1   
    18     5    36 1   
    19     6    20 1   
    20     6    37 1   
    21     6    38 1   
    22     7    21 1   
    23     7    39 1   
    24     7    40 1   
    25     8    21 1   
    26     8    22 1   
    27     8    41 1   
    28     8    42 1   
    29     9    10 ar  
    30     9    14 ar  
    31     9    17 1   
    32    10    11 ar  
    33    10    43 1   
    34    11    12 ar  
    35    11    44 1   
    36    12    13 ar  
    37    12    23 1   
    38    13    14 ar  
    39    14    16 1   
    40    15    23 1   
    41    15    24 1   
    42    15    27 2   
    43    16    45 1   
    44    16    46 1   
    45    16    47 1   
    46    17    18 1   
    47    17    26 2   
    48    18    19 2   
    49    18    20 1   
    50    19    28 1   
    51    20    29 2   
    52    21    48 1   
    53    21    49 1   
    54    22    50 1   
    55    22    51 1   
    56    28    52 1   
@<TRIPOS>SUBSTRUCTURE
     1 T8H         1 TEMP              0 ****  ****    0 ROOT
