@<TRIPOS>MOLECULE
T8I
   48    50     1     0     0
SMALL
No Charge or Current Charge


@<TRIPOS>ATOM
      1 C01         41.2030     8.4310    10.9380 c3         1 T8I       0.151900
      2 C03         40.9170    10.8800    11.0140 ca         1 T8I       0.577300
      3 C04         41.8760    11.0190    12.0420 ca         1 T8I      -0.263000
      4 C05         42.1710    12.2940    12.5480 ca         1 T8I      -0.015300
      5 C06         43.1910    12.4830    13.6640 c3         1 T8I      -0.059100
      6 C07         42.6340    12.0970    15.0510 c3         1 T8I       0.110000
      7 C09         41.3120    14.1310    15.7220 c          1 T8I       0.626300
      8 C11         39.9090    14.6520    15.8920 cc         1 T8I      -0.142200
      9 C12         39.7280    15.9840    16.2420 cd         1 T8I       0.082900
     10 C14         38.3860    16.5950    16.4250 c          1 T8I       0.699700
     11 C17         37.4150    14.5070    15.8240 cc         1 T8I       0.725800
     12 C19         36.2120    13.6960    15.5540 ca         1 T8I      -0.132900
     13 C20         36.2740    12.5250    14.7610 ca         1 T8I      -0.081000
     14 C21         35.1150    11.7780    14.4840 ca         1 T8I      -0.061500
     15 C22         33.8590    12.1890    14.9730 ca         1 T8I      -0.170300
     16 C23         33.7870    13.3630    15.7510 ca         1 T8I      -0.061500
     17 C24         34.9440    14.1110    16.0270 ca         1 T8I      -0.081000
     18 C25         32.5980    11.3670    14.6790 c3         1 T8I       0.344300
     19 C29         41.4830    13.3850    11.9990 ca         1 T8I      -0.205000
     20 C30         40.5440    13.1630    10.9810 ca         1 T8I       0.383900
     21 F26         32.6660    10.7320    13.4860 f          1 T8I      -0.108667
     22 F27         31.4810    12.1300    14.6450 f          1 T8I      -0.108667
     23 F28         32.4000    10.4180    15.6210 f          1 T8I      -0.108667
     24 N08         41.3890    12.8030    15.3710 ns         1 T8I      -0.497900
     25 N16         37.3130    15.7640    16.1770 nd         1 T8I      -0.709100
     26 N18         38.6830    13.9150    15.7590 na         1 T8I      -0.738200
     27 N31         40.2630    11.9350    10.4940 nb         1 T8I      -0.691000
     28 O02         40.5910     9.6520    10.4840 os         1 T8I      -0.449300
     29 O10         42.3160    14.8160    15.8720 o          1 T8I      -0.626100
     30 O13         40.7750    16.8360    16.4470 oh         1 T8I      -0.487100
     31 O15         38.1780    17.7550    16.7570 o          1 T8I      -0.499100
     32 H1          40.8000     7.5740    10.3840 h1         1 T8I       0.047367
     33 H2          42.2890     8.4550    10.7810 h1         1 T8I       0.047367
     34 H3          41.0050     8.2670    12.0050 h1         1 T8I       0.047367
     35 H4          42.3910    10.1570    12.4500 ha         1 T8I       0.128000
     36 H5          44.0830    11.8780    13.4620 hc         1 T8I       0.071700
     37 H6          43.5330    13.5240    13.6940 hc         1 T8I       0.071700
     38 H7          42.4360    11.0170    15.0730 h1         1 T8I       0.062700
     39 H8          43.3840    12.3160    15.8230 h1         1 T8I       0.062700
     40 H9          37.2150    12.1850    14.3350 ha         1 T8I       0.135000
     41 H10         35.2010    10.8770    13.8800 ha         1 T8I       0.144500
     42 H11         32.8320    13.7050    16.1470 ha         1 T8I       0.144500
     43 H12         34.8480    15.0140    16.6260 ha         1 T8I       0.135000
     44 H13         41.6630    14.3970    12.3520 ha         1 T8I       0.131000
     45 H14         39.9980    13.9960    10.5410 h4         1 T8I       0.031100
     46 H15         40.5180    12.3090    15.2510 hn         1 T8I       0.321500
     47 H16         38.6790    12.9150    15.5970 hn         1 T8I       0.501000
     48 H17         41.5920    16.2930    16.2860 ho         1 T8I       0.511000
@<TRIPOS>BOND
     1     1    28 1   
     2     1    32 1   
     3     1    33 1   
     4     1    34 1   
     5     2     3 ar  
     6     2    27 ar  
     7     2    28 1   
     8     3     4 ar  
     9     3    35 1   
    10     4     5 1   
    11     4    19 ar  
    12     5     6 1   
    13     5    36 1   
    14     5    37 1   
    15     6    24 1   
    16     6    38 1   
    17     6    39 1   
    18     7     8 1   
    19     7    24 1   
    20     7    29 2   
    21     8     9 2   
    22     8    26 1   
    23     9    10 1   
    24     9    30 1   
    25    10    25 1   
    26    10    31 2   
    27    11    12 1   
    28    11    25 2   
    29    11    26 1   
    30    12    13 ar  
    31    12    17 ar  
    32    13    14 ar  
    33    13    40 1   
    34    14    15 ar  
    35    14    41 1   
    36    15    16 ar  
    37    15    18 1   
    38    16    17 ar  
    39    16    42 1   
    40    17    43 1   
    41    18    21 1   
    42    18    22 1   
    43    18    23 1   
    44    19    20 ar  
    45    19    44 1   
    46    20    27 ar  
    47    20    45 1   
    48    24    46 1   
    49    26    47 1   
    50    30    48 1   
@<TRIPOS>SUBSTRUCTURE
     1 T8I         1 TEMP              0 ****  ****    0 ROOT
