@<TRIPOS>MOLECULE
T8I
   48    50     1     0     0
SMALL
abcg2


@<TRIPOS>ATOM
      1 C01         39.2360     9.7010    13.9580 c3         1 T8I       0.151900
      2 C03         39.6180    11.0410    12.0120 ca         1 T8I       0.577300
      3 C04         40.8220    11.5320    12.5290 ca         1 T8I      -0.263000
      4 C05         41.5050    12.5140    11.8170 ca         1 T8I      -0.015300
      5 C06         42.7800    13.1480    12.3270 c3         1 T8I      -0.059100
      6 C07         42.9380    13.1880    13.8440 c3         1 T8I       0.110000
      7 C09         41.6550    14.0670    15.7620 c          1 T8I       0.626300
      8 C11         40.2970    14.2970    16.3120 cc         1 T8I      -0.142200
      9 C12         40.1000    15.0050    17.4620 cd         1 T8I       0.082900
     10 C14         38.7250    15.2490    17.9320 c          1 T8I       0.699700
     11 C17         37.9480    13.9690    16.1370 cc         1 T8I       0.725800
     12 C19         36.8430    13.3060    15.4100 ca         1 T8I      -0.132900
     13 C20         36.9640    12.9490    14.0650 ca         1 T8I      -0.081000
     14 C21         35.9250    12.2980    13.4160 ca         1 T8I      -0.061500
     15 C22         34.7560    12.0060    14.1090 ca         1 T8I      -0.170300
     16 C23         34.6210    12.3680    15.4480 ca         1 T8I      -0.061500
     17 C24         35.6600    13.0170    16.0930 ca         1 T8I      -0.081000
     18 C25         33.6400    11.2580    13.4370 c3         1 T8I       0.344300
     19 C29         40.9650    12.9340    10.6010 ca         1 T8I      -0.205000
     20 C30         39.7840    12.3600    10.1610 ca         1 T8I       0.383900
     21 F26         33.6810    11.3570    12.0940 f          1 T8I      -0.108667
     22 F27         32.4240    11.6960    13.8280 f          1 T8I      -0.108667
     23 F28         33.6780     9.9330    13.7270 f          1 T8I      -0.108667
     24 N08         41.7360    13.7240    14.4740 ns         1 T8I      -0.497900
     25 N16         37.7020    14.6950    17.1980 nd         1 T8I      -0.709100
     26 N18         39.1950    13.7670    15.6730 na         1 T8I      -0.738200
     27 N31         39.1080    11.4370    10.8500 nb         1 T8I      -0.691000
     28 O02         38.8510    10.1300    12.6490 os         1 T8I      -0.449300
     29 O10         42.6440    14.1940    16.5030 o          1 T8I      -0.626100
     30 O13         41.0980    15.5090    18.1910 oh         1 T8I      -0.487100
     31 O15         38.5080    15.9200    18.9420 o          1 T8I      -0.499100
     32 H1          38.4620     9.0100    14.2800 h1         1 T8I       0.047367
     33 H2          40.2010     9.1900    13.9360 h1         1 T8I       0.047367
     34 H3          39.2820    10.5470    14.6460 h1         1 T8I       0.047367
     35 H4          41.2010    11.1710    13.4730 ha         1 T8I       0.128000
     36 H5          43.6380    12.6050    11.9210 hc         1 T8I       0.071700
     37 H6          42.8400    14.1620    11.9270 hc         1 T8I       0.071700
     38 H7          43.1300    12.1900    14.2450 h1         1 T8I       0.062700
     39 H8          43.7910    13.8140    14.1050 h1         1 T8I       0.062700
     40 H9          37.8500    13.1950    13.4960 ha         1 T8I       0.135000
     41 H10         36.0290    12.0280    12.3750 ha         1 T8I       0.144500
     42 H11         33.7110    12.1410    15.9860 ha         1 T8I       0.144500
     43 H12         35.5660    13.2970    17.1320 ha         1 T8I       0.135000
     44 H13         41.4520    13.7010    10.0130 ha         1 T8I       0.131000
     45 H14         39.3470    12.6640     9.2160 h4         1 T8I       0.031100
     46 H15         40.9060    13.7690    13.9040 hn         1 T8I       0.321500
     47 H16         39.3330    13.0720    14.9550 hn         1 T8I       0.501000
     48 H17         41.9370    15.1620    17.7990 ho         1 T8I       0.511000
@<TRIPOS>BOND
     1     1    28 1   
     2     1    32 1   
     3     1    33 1   
     4     1    34 1   
     5     2     3 ar  
     6     2    27 ar  
     7     2    28 1   
     8     3     4 ar  
     9     3    35 1   
    10     4     5 1   
    11     4    19 ar  
    12     5     6 1   
    13     5    36 1   
    14     5    37 1   
    15     6    24 1   
    16     6    38 1   
    17     6    39 1   
    18     7     8 1   
    19     7    24 1   
    20     7    29 2   
    21     8     9 2   
    22     8    26 1   
    23     9    10 1   
    24     9    30 1   
    25    10    25 1   
    26    10    31 2   
    27    11    12 1   
    28    11    25 2   
    29    11    26 1   
    30    12    13 ar  
    31    12    17 ar  
    32    13    14 ar  
    33    13    40 1   
    34    14    15 ar  
    35    14    41 1   
    36    15    16 ar  
    37    15    18 1   
    38    16    17 ar  
    39    16    42 1   
    40    17    43 1   
    41    18    21 1   
    42    18    22 1   
    43    18    23 1   
    44    19    20 ar  
    45    19    44 1   
    46    20    27 ar  
    47    20    45 1   
    48    24    46 1   
    49    26    47 1   
    50    30    48 1   
@<TRIPOS>SUBSTRUCTURE
     1 T8I         1 TEMP              0 ****  ****    0 ROOT
