@<TRIPOS>MOLECULE
T8J
   30    31     1     0     0
SMALL
No Charge or Current Charge


@<TRIPOS>ATOM
      1 N1          -0.0220     0.5900     0.3850 n          1 T8J      -0.407800
      2 C4           1.0850     1.4780     0.8050 c6         1 T8J       0.075000
      3 C5           2.3840     1.2170     0.0080 c6         1 T8J       0.071500
      4 C6          -1.0890     1.0670    -0.4110 c          1 T8J       0.645700
      5 C7          -2.3660     0.3050    -0.4060 cc         1 T8J      -0.293600
      6 C8          -3.4130     0.5970    -1.2520 cd         1 T8J      -0.071000
      7 C10         -4.4520    -1.0250     0.0700 cc         1 T8J      -0.235000
      8 N            2.7870    -0.2230    -0.0550 n          1 T8J      -0.418800
      9 C            5.2340     0.4000    -0.3160 c3         1 T8J      -0.176100
     10 O            4.3040    -1.7150    -0.9270 o          1 T8J      -0.604100
     11 C1           4.0840    -0.5950    -0.4840 c          1 T8J       0.610100
     12 C2           1.6540    -1.1830    -0.2440 c6         1 T8J       0.071500
     13 C3           0.3470    -0.8420     0.5180 c6         1 T8J       0.075000
     14 C9          -4.5820    -0.1670    -0.9920 cd         1 T8J      -0.142000
     15 O1          -0.9660     2.1000    -1.0570 o          1 T8J      -0.585100
     16 S           -2.8530    -0.8950     0.7940 ss         1 T8J       0.236000
     17 H7           0.7960     2.5330     0.7030 h1         1 T8J       0.067200
     18 H8           1.2850     1.3060     1.8720 h1         1 T8J       0.067200
     19 H9           2.2460     1.5850    -1.0190 h1         1 T8J       0.063700
     20 H10          3.1800     1.8200     0.4660 h1         1 T8J       0.063700
     21 H11         -3.3570     1.3420    -2.0420 ha         1 T8J       0.148000
     22 H13         -5.1750    -1.7130     0.4890 h4         1 T8J       0.153000
     23 H            5.2280     0.7920     0.7070 hc         1 T8J       0.061367
     24 H2           6.2060    -0.0350    -0.5750 hc         1 T8J       0.061367
     25 H1           5.0300     1.2920    -0.9190 hc         1 T8J       0.061367
     26 H3           1.4250    -1.2260    -1.3180 h1         1 T8J       0.063700
     27 H4           1.9730    -2.1920     0.0550 h1         1 T8J       0.063700
     28 H5           0.4710    -1.0830     1.5830 h1         1 T8J       0.067200
     29 H6          -0.4300    -1.5000     0.1130 h1         1 T8J       0.067200
     30 H12         -5.4950    -0.0710    -1.5730 ha         1 T8J       0.139000
@<TRIPOS>BOND
     1     1     2 1   
     2     1     4 1   
     3     1    13 1   
     4     2     3 1   
     5     2    17 1   
     6     2    18 1   
     7     3     8 1   
     8     3    19 1   
     9     3    20 1   
    10     4     5 1   
    11     4    15 2   
    12     5     6 2   
    13     5    16 1   
    14     6    14 1   
    15     6    21 1   
    16     7    14 2   
    17     7    16 1   
    18     7    22 1   
    19     8    11 1   
    20     8    12 1   
    21     9    11 1   
    22     9    23 1   
    23     9    24 1   
    24     9    25 1   
    25    10    11 2   
    26    12    13 1   
    27    12    26 1   
    28    12    27 1   
    29    13    28 1   
    30    13    29 1   
    31    14    30 1   
@<TRIPOS>SUBSTRUCTURE
     1 T8J         1 TEMP              0 ****  ****    0 ROOT
