@<TRIPOS>MOLECULE
T8J
   30    31     1     0     0
SMALL
bcc


@<TRIPOS>ATOM
      1 N1           0.0620     0.6400     0.3720 n          1 T8J      -0.474800
      2 C4           1.2170     1.4740     0.6570 c6         1 T8J       0.075000
      3 C5           2.3200     1.2620    -0.3700 c6         1 T8J       0.071500
      4 C6          -1.0630     1.2010    -0.1310 c          1 T8J       0.712700
      5 C7          -2.2880     0.3680    -0.2000 cc         1 T8J      -0.148700
      6 C8          -3.2410     0.4470    -1.1750 cd         1 T8J      -0.089000
      7 C10         -4.2660    -1.0310     0.2760 cc         1 T8J      -0.108100
      8 N            2.6600    -0.1450    -0.4420 n          1 T8J      -0.485800
      9 C            5.0120     0.2970     0.0670 c3         1 T8J      -0.176100
     10 O            4.0990    -1.8750    -0.2880 o          1 T8J      -0.604100
     11 C1           3.8910    -0.6690    -0.2350 c          1 T8J       0.677100
     12 C2           1.5180    -0.9890    -0.7290 c6         1 T8J       0.071500
     13 C3           0.4010    -0.7720     0.2870 c6         1 T8J       0.075000
     14 C9          -4.3690    -0.3680    -0.9110 cd         1 T8J      -0.160000
     15 O1          -1.1230     2.3700    -0.4870 o          1 T8J      -0.585100
     16 S           -2.7940    -0.6840     1.0700 ss         1 T8J      -0.053800
     17 H7           0.9220     2.5200     0.6820 h1         1 T8J       0.067200
     18 H8           1.5920     1.2040     1.6490 h1         1 T8J       0.067200
     19 H9           1.9810     1.6050    -1.3530 h1         1 T8J       0.063700
     20 H10          3.1830     1.8610    -0.0950 h1         1 T8J       0.063700
     21 H11         -3.1350     1.0650    -2.0560 ha         1 T8J       0.166000
     22 H13         -4.9800    -1.7010     0.7290 h4         1 T8J       0.171000
     23 H            4.8280     0.8570     0.9850 hc         1 T8J       0.061367
     24 H2           5.9360    -0.2620     0.1890 hc         1 T8J       0.061367
     25 H1           5.1520     1.0210    -0.7360 hc         1 T8J       0.061367
     26 H3           1.1430    -0.7560    -1.7320 h1         1 T8J       0.063700
     27 H4           1.8190    -2.0330    -0.7180 h1         1 T8J       0.063700
     28 H5           0.7150    -1.1310     1.2710 h1         1 T8J       0.067200
     29 H6          -0.4520    -1.3660    -0.0290 h1         1 T8J       0.067200
     30 H12         -5.2220    -0.4520    -1.5680 ha         1 T8J       0.157000
@<TRIPOS>BOND
     1     1     2 1   
     2     1     4 1   
     3     1    13 1   
     4     2     3 1   
     5     2    17 1   
     6     2    18 1   
     7     3     8 1   
     8     3    19 1   
     9     3    20 1   
    10     4     5 1   
    11     4    15 2   
    12     5     6 2   
    13     5    16 1   
    14     6    14 1   
    15     6    21 1   
    16     7    14 2   
    17     7    16 1   
    18     7    22 1   
    19     8    11 1   
    20     8    12 1   
    21     9    11 1   
    22     9    23 1   
    23     9    24 1   
    24     9    25 1   
    25    10    11 2   
    26    12    13 1   
    27    12    26 1   
    28    12    27 1   
    29    13    28 1   
    30    13    29 1   
    31    14    30 1   
@<TRIPOS>SUBSTRUCTURE
     1 T8J         1 TEMP              0 ****  ****    0 ROOT
