@<TRIPOS>MOLECULE
T8L
   20    19     1     0     0
SMALL
No Charge or Current Charge


@<TRIPOS>ATOM
      1 N          -11.7660    83.5650    -5.3730 n8         1 T8L      -0.866800
      2 CA         -10.4880    82.8000    -5.6960 c3         1 T8L       0.011500
      3 C           -9.6320    82.3380    -4.4490 c          1 T8L       0.895600
      4 O           -9.1370    83.1920    -3.7210 o          1 T8L      -0.854800
      5 CB          -9.5460    83.5460    -6.7000 c3         1 T8L       0.232100
      6 OG1        -10.3000    83.9360    -7.8650 os         1 T8L      -0.581200
      7 CG2         -8.3540    82.6910    -7.1940 c3         1 T8L      -0.100100
      8 O1P        -11.4180    85.6640    -9.4090 o          1 T8L      -0.771000
      9 O2P        -10.8620    86.3420    -7.0780 o          1 T8L      -0.771000
     10 P          -10.4990    85.4930    -8.2480 p5         1 T8L       1.257800
     11 S1          -8.5480    85.8990    -8.8750 sh         1 T8L      -0.698200
     12 H1         -12.2960    83.0550    -4.6600 hn         1 T8L       0.317800
     13 H2         -11.5170    84.4530    -4.9260 hn         1 T8L       0.317800
     14 H4         -10.8090    81.8750    -6.1930 h1         1 T8L       0.044700
     15 H6          -9.1350    84.4300    -6.1920 h1         1 T8L       0.056700
     16 H7          -7.6860    82.4340    -6.3650 hc         1 T8L       0.028033
     17 H8          -8.7080    81.7580    -7.6510 hc         1 T8L       0.028033
     18 H9          -7.7610    83.2330    -7.9380 hc         1 T8L       0.028033
     19 H11         -9.0480    85.6210   -10.1010 hs         1 T8L       0.281800
     20 O1          -9.5850    81.1440    -4.1770 o          1 T8L      -0.854800
@<TRIPOS>BOND
     1     1     2 1   
     2     1    12 1   
     3     1    13 1   
     4     2     3 1   
     5     2     5 1   
     6     2    14 1   
     7     3     4 1   
     8     3    20 1   
     9     5     6 1   
    10     5     7 1   
    11     5    15 1   
    12     6    10 1   
    13     7    16 1   
    14     7    17 1   
    15     7    18 1   
    16     8    10 1   
    17     9    10 1   
    18    10    11 1   
    19    11    19 1   
@<TRIPOS>SUBSTRUCTURE
     1 T8L         1 TEMP              0 ****  ****    0 ROOT
