@<TRIPOS>MOLECULE
T8L
   20    19     1     0     0
SMALL
bcc


@<TRIPOS>ATOM
      1 N          -11.6360    83.6340    -5.2560 n8         1 T8L      -0.866800
      2 CA         -10.5250    82.8020    -5.7080 c3         1 T8L       0.011500
      3 C           -9.6860    82.2180    -4.5450 c          1 T8L       0.895600
      4 O           -9.2910    83.0470    -3.6960 o          1 T8L      -0.854800
      5 CB          -9.6200    83.6180    -6.6380 c3         1 T8L       0.232100
      6 OG1        -10.3850    84.0060    -7.7780 os         1 T8L      -0.581200
      7 CG2         -8.4050    82.8370    -7.1130 c3         1 T8L      -0.100100
      8 O1P        -11.5900    85.5070    -9.3420 o          1 T8L      -0.771000
      9 O2P        -10.5680    86.5250    -7.1480 o          1 T8L      -0.771000
     10 P          -10.5470    85.5450    -8.2750 p5         1 T8L       1.257800
     11 S1          -8.6290    85.9590    -9.1850 sh         1 T8L      -0.698200
     12 H1         -12.3020    83.0500    -4.7640 hn         1 T8L       0.317800
     13 H2         -11.2740    84.2700    -4.5540 hn         1 T8L       0.317800
     14 H4         -10.9390    81.9750    -6.2950 h1         1 T8L       0.044700
     15 H6          -9.2820    84.5060    -6.0900 h1         1 T8L       0.056700
     16 H7          -7.7380    82.5990    -6.2860 hc         1 T8L       0.028033
     17 H8          -8.6970    81.9010    -7.5920 hc         1 T8L       0.028033
     18 H9          -7.8370    83.4280    -7.8310 hc         1 T8L       0.028033
     19 H11         -8.6760    85.0510   -10.1670 hs         1 T8L       0.281800
     20 O1          -9.4690    80.9900    -4.5490 o          1 T8L      -0.854800
@<TRIPOS>BOND
     1     1     2 1   
     2     1    12 1   
     3     1    13 1   
     4     2     3 1   
     5     2     5 1   
     6     2    14 1   
     7     3     4 1   
     8     3    20 1   
     9     5     6 1   
    10     5     7 1   
    11     5    15 1   
    12     6    10 1   
    13     7    16 1   
    14     7    17 1   
    15     7    18 1   
    16     8    10 1   
    17     9    10 1   
    18    10    11 1   
    19    11    19 1   
@<TRIPOS>SUBSTRUCTURE
     1 T8L         1 TEMP              0 ****  ****    0 ROOT
