@<TRIPOS>MOLECULE
T8M
   31    32     1     0     0
SMALL
bcc


@<TRIPOS>ATOM
      1 N1          -0.0040     0.5360    -0.3370 n3         1 T8M      -0.730600
      2 C4           1.1530     0.7070    -1.1880 c3         1 T8M       0.242100
      3 C5           2.3390    -0.0130    -0.6350 cc         1 T8M      -0.073400
      4 C6           3.3330    -0.6750    -1.2880 cd         1 T8M      -0.153000
      5 C7           4.3350    -1.1800    -0.4100 cd         1 T8M      -0.151000
      6 C8           4.0740    -0.8950     0.8940 cc         1 T8M      -0.127100
      7 C10         -1.6640    -0.9790     0.6080 c6         1 T8M       0.099000
      8 N           -2.6850     0.0340     0.4210 n          1 T8M      -0.484800
      9 C           -4.4540    -1.6470     0.2720 c3         1 T8M      -0.176100
     10 O           -4.8190     0.7030     0.1320 o          1 T8M      -0.608100
     11 C1          -4.0060    -0.2040     0.2680 c          1 T8M       0.675100
     12 C2          -2.1530     1.3840     0.4340 c6         1 T8M       0.099000
     13 C3          -1.0370     1.5230    -0.5860 c6         1 T8M       0.148300
     14 C9          -0.5520    -0.8030    -0.4110 c6         1 T8M       0.148300
     15 S            2.6100    -0.0150     1.0670 ss         1 T8M      -0.055800
     16 H7           0.9830     0.3720    -2.2240 h1         1 T8M       0.046200
     17 H8           1.3730     1.7780    -1.2450 h1         1 T8M       0.046200
     18 H9           3.3520    -0.7990    -2.3620 ha         1 T8M       0.148000
     19 H10          5.2010    -1.7380    -0.7380 ha         1 T8M       0.150000
     20 H11          4.6540    -1.1690     1.7620 h4         1 T8M       0.166000
     21 H15         -1.2470    -0.8900     1.6160 h1         1 T8M       0.060200
     22 H14         -2.0830    -1.9760     0.5130 h1         1 T8M       0.060200
     23 H           -5.5360    -1.6820     0.1710 hc         1 T8M       0.059700
     24 H2          -4.0150    -2.2090    -0.5530 hc         1 T8M       0.059700
     25 H1          -4.1780    -2.1550     1.1970 hc         1 T8M       0.059700
     26 H4          -2.9480     2.0930     0.2190 h1         1 T8M       0.060200
     27 H3          -1.7630     1.6060     1.4330 h1         1 T8M       0.060200
     28 H6          -0.6050     2.5220    -0.5010 h1         1 T8M       0.042950
     29 H5          -1.4590     1.4340    -1.6010 h1         1 T8M       0.042950
     30 H13         -0.9410    -1.0250    -1.4200 h1         1 T8M       0.042950
     31 H12          0.2320    -1.5320    -0.1990 h1         1 T8M       0.042950
@<TRIPOS>BOND
     1     1     2 1   
     2     1    13 1   
     3     1    14 1   
     4     2     3 1   
     5     2    16 1   
     6     2    17 1   
     7     3     4 2   
     8     3    15 1   
     9     4     5 1   
    10     4    18 1   
    11     5     6 2   
    12     5    19 1   
    13     6    15 1   
    14     6    20 1   
    15     7     8 1   
    16     7    14 1   
    17     7    21 1   
    18     7    22 1   
    19     8    11 1   
    20     8    12 1   
    21     9    11 1   
    22     9    23 1   
    23     9    24 1   
    24     9    25 1   
    25    10    11 2   
    26    12    13 1   
    27    12    26 1   
    28    12    27 1   
    29    13    28 1   
    30    13    29 1   
    31    14    30 1   
    32    14    31 1   
@<TRIPOS>SUBSTRUCTURE
     1 T8M         1 TEMP              0 ****  ****    0 ROOT
