@<TRIPOS>MOLECULE
T8M
   31    32     1     0     0
SMALL
No Charge or Current Charge


@<TRIPOS>ATOM
      1 N1           0.0580     0.6870    -0.3160 n3         1 T8M      -0.730600
      2 C4           1.3470     0.9980    -0.9740 c3         1 T8M       0.242100
      3 C5           2.4790     0.1460    -0.4680 cc         1 T8M      -0.218300
      4 C6           3.1690    -0.8340    -1.1370 cd         1 T8M      -0.135000
      5 C7           4.1860    -1.4450    -0.3570 cd         1 T8M      -0.133000
      6 C8           4.2810    -0.9350     0.9130 cc         1 T8M      -0.254000
      7 C10         -1.7100    -1.0470     0.2020 c6         1 T8M       0.099000
      8 N           -2.8040    -0.0280     0.0980 n          1 T8M      -0.417800
      9 C           -4.5710    -1.7770     0.6020 c3         1 T8M      -0.176100
     10 O           -4.8920     0.5820     0.8370 o          1 T8M      -0.608100
     11 C1          -4.1120    -0.3170     0.5490 c          1 T8M       0.608100
     12 C2          -2.3340     1.3920     0.0740 c6         1 T8M       0.099000
     13 C3          -1.0140     1.6390    -0.7040 c6         1 T8M       0.148300
     14 C9          -0.4090    -0.7010    -0.5730 c6         1 T8M       0.148300
     15 S            3.0890     0.3360     1.1740 ss         1 T8M       0.234000
     16 H7           1.2610     0.8660    -2.0620 h1         1 T8M       0.046200
     17 H8           1.6120     2.0500    -0.7990 h1         1 T8M       0.046200
     18 H9           2.9570    -1.1170    -2.1640 ha         1 T8M       0.130000
     19 H10          4.8280    -2.2390    -0.7300 ha         1 T8M       0.132000
     20 H11          4.9560    -1.2070     1.7130 h4         1 T8M       0.148000
     21 H15         -1.4570    -1.1700     1.2650 h1         1 T8M       0.060200
     22 H14         -2.0610    -2.0210    -0.1610 h1         1 T8M       0.060200
     23 H           -5.6300    -1.8730     0.8660 hc         1 T8M       0.059700
     24 H2          -4.3500    -2.2600    -0.3560 hc         1 T8M       0.059700
     25 H1          -3.9380    -2.3290     1.3050 hc         1 T8M       0.059700
     26 H4          -3.1150     2.0320    -0.3610 h1         1 T8M       0.060200
     27 H3          -2.1900     1.7230     1.1130 h1         1 T8M       0.060200
     28 H6          -0.6920     2.6750    -0.5230 h1         1 T8M       0.042950
     29 H5          -1.2220     1.5530    -1.7810 h1         1 T8M       0.042950
     30 H13         -0.5950    -0.8410    -1.6480 h1         1 T8M       0.042950
     31 H12          0.3620    -1.4320    -0.2870 h1         1 T8M       0.042950
@<TRIPOS>BOND
     1     1     2 1   
     2     1    13 1   
     3     1    14 1   
     4     2     3 1   
     5     2    16 1   
     6     2    17 1   
     7     3     4 2   
     8     3    15 1   
     9     4     5 1   
    10     4    18 1   
    11     5     6 2   
    12     5    19 1   
    13     6    15 1   
    14     6    20 1   
    15     7     8 1   
    16     7    14 1   
    17     7    21 1   
    18     7    22 1   
    19     8    11 1   
    20     8    12 1   
    21     9    11 1   
    22     9    23 1   
    23     9    24 1   
    24     9    25 1   
    25    10    11 2   
    26    12    13 1   
    27    12    26 1   
    28    12    27 1   
    29    13    28 1   
    30    13    29 1   
    31    14    30 1   
    32    14    31 1   
@<TRIPOS>SUBSTRUCTURE
     1 T8M         1 TEMP              0 ****  ****    0 ROOT
