@<TRIPOS>MOLECULE
T8N
   19    18     1     0     0
SMALL
No Charge or Current Charge


@<TRIPOS>ATOM
      1 OG1         -1.5210     0.9470     1.2570 o          1 T8N      -0.523000
      2 CGC         -1.5620     0.4260     0.1470 c          1 T8N       0.644100
      3 OG2         -2.7080    -0.0870    -0.4130 os         1 T8N      -0.453100
      4 C16         -3.8870    -0.1570     0.4040 c3         1 T8N       0.164900
      5 CG          -0.4210     0.5100    -0.8790 c3         1 T8N      -0.055200
      6 CB           0.9960     0.4300    -0.2770 ce         1 T8N      -0.209400
      7 C2C          1.7280     1.7530    -0.0990 c          1 T8N       0.712200
      8 OB2          1.1660     2.7960    -0.3970 o          1 T8N      -0.761500
      9 OB1          2.8670     1.7410     0.3450 o          1 T8N      -0.761500
     10 CA           1.6060    -0.7680     0.0580 cf         1 T8N      -0.258200
     11 C1C          1.0820    -2.1680    -0.0140 c          1 T8N       0.696200
     12 OA1         -0.0640    -2.3840    -0.3700 o          1 T8N      -0.767000
     13 OA2          1.8460    -3.0570     0.3240 o          1 T8N      -0.767000
     14 H16         -4.7170    -0.5960    -0.1630 h1         1 T8N       0.016367
     15 H16A        -3.7100    -0.7800     1.2900 h1         1 T8N       0.016367
     16 H16B        -4.1920     0.8450     0.7350 h1         1 T8N       0.016367
     17 HG          -0.5830    -0.2510    -1.6500 hc         1 T8N       0.059700
     18 HGA         -0.5860     1.4310    -1.4480 hc         1 T8N       0.059700
     19 HA           2.6200    -0.7240     0.4490 ha         1 T8N       0.170000
@<TRIPOS>BOND
     1     1     2 2   
     2     2     3 1   
     3     2     5 1   
     4     3     4 1   
     5     4    14 1   
     6     4    15 1   
     7     4    16 1   
     8     5     6 1   
     9     5    17 1   
    10     5    18 1   
    11     6     7 1   
    12     6    10 2   
    13     7     8 1   
    14     7     9 1   
    15    10    11 1   
    16    10    19 1   
    17    11    12 1   
    18    11    13 1   
@<TRIPOS>SUBSTRUCTURE
     1 T8N         1 TEMP              0 ****  ****    0 ROOT
