@<TRIPOS>MOLECULE
T8N
   19    18     1     0     0
SMALL
abcg2


@<TRIPOS>ATOM
      1 OG1         -1.4160     0.5110     1.3190 o          1 T8N      -0.523000
      2 CGC         -1.4970     0.3260     0.1300 c          1 T8N       0.644100
      3 OG2         -2.6300    -0.0410    -0.4670 os         1 T8N      -0.453100
      4 C16         -3.7510    -0.2960     0.3690 c3         1 T8N       0.164900
      5 CG          -0.4150     0.6170    -0.8690 c3         1 T8N      -0.055200
      6 CB           0.9700     0.4850    -0.3040 ce         1 T8N      -0.209400
      7 C2C          1.8380     1.7470    -0.2690 c          1 T8N       0.712200
      8 OB2          1.3360     2.7800    -0.7570 o          1 T8N      -0.761500
      9 OB1          2.9730     1.6530     0.2380 o          1 T8N      -0.761500
     10 CA           1.4710    -0.6730     0.1340 cf         1 T8N      -0.258200
     11 C1C          0.7840    -2.0140     0.1610 c          1 T8N       0.696200
     12 OA1         -0.4310    -2.0710    -0.1310 o          1 T8N      -0.767000
     13 OA2          1.5080    -2.9810     0.4810 o          1 T8N      -0.767000
     14 H16         -4.5600    -0.5930    -0.2940 h1         1 T8N       0.016367
     15 H16A        -3.5520    -1.1050     1.0730 h1         1 T8N       0.016367
     16 H16B        -4.0550     0.5910     0.9250 h1         1 T8N       0.016367
     17 HG          -0.5510    -0.0160    -1.7460 hc         1 T8N       0.059700
     18 HGA         -0.5520     1.6500    -1.2000 hc         1 T8N       0.059700
     19 HA           2.4900    -0.6620     0.5070 ha         1 T8N       0.170000
@<TRIPOS>BOND
     1     1     2 2   
     2     2     3 1   
     3     2     5 1   
     4     3     4 1   
     5     4    14 1   
     6     4    15 1   
     7     4    16 1   
     8     5     6 1   
     9     5    17 1   
    10     5    18 1   
    11     6     7 1   
    12     6    10 2   
    13     7     8 1   
    14     7     9 1   
    15    10    11 1   
    16    10    19 1   
    17    11    12 1   
    18    11    13 1   
@<TRIPOS>SUBSTRUCTURE
     1 T8N         1 TEMP              0 ****  ****    0 ROOT
