@<TRIPOS>MOLECULE
T8O
   18    18     1     0     0
SMALL
abcg2


@<TRIPOS>ATOM
      1 C4         -10.9780    -5.7340   -18.1760 c3         1 T8O       0.295300
      2 C5         -13.6170    -7.4800   -19.6060 ca         1 T8O      -0.012000
      3 C6         -14.9810    -7.6990   -19.5290 ca         1 T8O      -0.200000
      4 C          -15.8870    -6.6350   -19.6800 ca         1 T8O       0.334000
      5 C1         -15.3740    -5.3470   -19.9090 ca         1 T8O      -0.200000
      6 C2         -14.0090    -5.1340   -19.9790 ca         1 T8O      -0.012000
      7 C3         -13.1140    -6.1950   -19.8260 ca         1 T8O      -0.192000
      8 F           -9.7200    -5.2120   -18.0660 f          1 T8O      -0.103500
      9 F1         -10.9510    -6.9440   -17.5310 f          1 T8O      -0.103500
     10 S          -11.3640    -5.9120   -19.9400 ss         1 T8O      -0.207000
     11 H1         -11.6900    -5.0910   -17.6600 h3         1 T8O       0.073700
     12 H2         -12.9340    -8.3110   -19.4890 ha         1 T8O       0.127000
     13 H3         -15.3600    -8.6980   -19.3520 ha         1 T8O       0.117500
     14 H4         -17.5620    -7.7030   -19.2080 hn         1 T8O       0.462500
     15 H5         -17.8370    -6.0610   -19.4840 hn         1 T8O       0.462500
     16 H6         -16.0590    -4.5160   -20.0300 ha         1 T8O       0.117500
     17 H7         -13.6310    -4.1340   -20.1510 ha         1 T8O       0.127000
     18 N          -17.2460    -6.8590   -19.6600 nv         1 T8O      -1.085000
@<TRIPOS>BOND
     1     1     8 1   
     2     1     9 1   
     3     1    10 1   
     4     1    11 1   
     5     2     3 ar  
     6     2     7 ar  
     7     2    12 1   
     8     3     4 ar  
     9     3    13 1   
    10     4     5 ar  
    11     4    18 1   
    12     5     6 ar  
    13     5    16 1   
    14     6     7 ar  
    15     6    17 1   
    16     7    10 1   
    17    14    18 1   
    18    15    18 1   
@<TRIPOS>SUBSTRUCTURE
     1 T8O         1 TEMP              0 ****  ****    0 ROOT
