@<TRIPOS>MOLECULE
T8O
   18    18     1     0     0
SMALL
No Charge or Current Charge


@<TRIPOS>ATOM
      1 C4         -10.6390    -6.3030   -18.4420 c3         1 T8O       0.295300
      2 C5         -13.7610    -6.7640   -18.6200 ca         1 T8O      -0.012000
      3 C6         -15.0590    -7.2620   -18.8310 ca         1 T8O      -0.200000
      4 C          -15.9290    -6.6120   -19.7150 ca         1 T8O       0.334000
      5 C1         -15.5090    -5.4600   -20.3900 ca         1 T8O      -0.200000
      6 C2         -14.2140    -4.9550   -20.1850 ca         1 T8O      -0.012000
      7 C3         -13.3310    -5.6070   -19.3040 ca         1 T8O      -0.192000
      8 F           -9.3620    -5.8960   -18.2600 f          1 T8O      -0.103500
      9 F1         -10.6000    -7.3280   -19.3230 f          1 T8O      -0.103500
     10 S          -11.6880    -4.9150   -19.0750 ss         1 T8O      -0.207000
     11 H1         -11.0450    -6.6520   -17.4880 h3         1 T8O       0.073700
     12 H2         -13.1080    -7.2800   -17.9210 ha         1 T8O       0.127000
     13 H3         -15.3830    -8.1540   -18.3030 ha         1 T8O       0.117500
     14 H4         -17.5480    -7.8290   -19.3000 hn         1 T8O       0.462500
     15 H5         -17.8730    -6.5380   -20.4180 hn         1 T8O       0.462500
     16 H6         -16.1820    -4.9520   -21.0750 ha         1 T8O       0.117500
     17 H7         -13.8940    -4.0590   -20.7120 ha         1 T8O       0.127000
     18 N          -17.1890    -7.1000   -19.9150 nv         1 T8O      -1.085000
@<TRIPOS>BOND
     1     1     8 1   
     2     1     9 1   
     3     1    10 1   
     4     1    11 1   
     5     2     3 ar  
     6     2     7 ar  
     7     2    12 1   
     8     3     4 ar  
     9     3    13 1   
    10     4     5 ar  
    11     4    18 1   
    12     5     6 ar  
    13     5    16 1   
    14     6     7 ar  
    15     6    17 1   
    16     7    10 1   
    17    14    18 1   
    18    15    18 1   
@<TRIPOS>SUBSTRUCTURE
     1 T8O         1 TEMP              0 ****  ****    0 ROOT
