@<TRIPOS>MOLECULE
T8P
   35    36     1     0     0
SMALL
No Charge or Current Charge


@<TRIPOS>ATOM
      1 N1          -3.2810     0.1410    -0.4560 n          1 T8P      -0.417800
      2 C4           1.0450    -0.1040    -0.0660 ca         1 T8P       0.237000
      3 C5           1.6630    -1.2320     0.5150 ca         1 T8P      -0.111500
      4 C6           3.0620    -1.2900     0.6560 ca         1 T8P      -0.147500
      5 C7          -1.1950    -1.2650    -0.3560 c6         1 T8P       0.171800
      6 C8          -2.5380    -0.9850    -1.0870 c6         1 T8P       0.095000
      7 C10         -1.1120     1.1420     0.3420 c6         1 T8P       0.171800
      8 N           -0.3620    -0.0280    -0.2170 nh         1 T8P      -0.776400
      9 C            6.1420     0.6960    -0.0350 c3         1 T8P       0.148900
     10 C1           3.8660    -0.2260     0.2170 ca         1 T8P       0.116100
     11 C11         -4.4700    -0.0600     0.2810 c          1 T8P       0.609100
     12 C12         -5.1730     1.1470     0.9040 c3         1 T8P      -0.177100
     13 C2           3.2580     0.9050    -0.3680 ca         1 T8P      -0.147500
     14 C3           1.8580     0.9590    -0.5060 ca         1 T8P      -0.111500
     15 C9          -2.4570     1.3830    -0.4010 c6         1 T8P       0.095000
     16 O1          -4.9620    -1.1760     0.3900 o          1 T8P      -0.606100
     17 H5           1.0630    -2.0640     0.8720 ha         1 T8P       0.115000
     18 H6           3.5240    -2.1630     1.1080 ha         1 T8P       0.121000
     19 H7          -1.4130    -1.6810     0.6390 h1         1 T8P       0.044700
     20 H8          -0.6480    -2.0330    -0.9220 h1         1 T8P       0.044700
     21 H9          -3.1430    -1.9020    -1.1010 h1         1 T8P       0.060450
     22 H10         -2.3260    -0.7260    -2.1340 h1         1 T8P       0.060450
     23 H13         -1.3240     0.9670     1.4070 h1         1 T8P       0.044700
     24 H14         -0.5120     2.0600     0.2790 h1         1 T8P       0.044700
     25 H2           7.1760     0.4040     0.1870 h1         1 T8P       0.039033
     26 H1           6.0630     0.8730    -1.1150 h1         1 T8P       0.039033
     27 H            5.9330     1.6350     0.4930 h1         1 T8P       0.039033
     28 H17         -5.2760     1.9380     0.1530 hc         1 T8P       0.060033
     29 H15         -6.1400     0.8850     1.3490 hc         1 T8P       0.060033
     30 H16         -4.5110     1.6000     1.6500 hc         1 T8P       0.060033
     31 H3           3.8490     1.7450    -0.7220 ha         1 T8P       0.121000
     32 H4           1.4030     1.8300    -0.9690 ha         1 T8P       0.115000
     33 H11         -2.2390     1.7040    -1.4290 h1         1 T8P       0.060450
     34 H12         -2.9900     2.2110     0.0810 h1         1 T8P       0.060450
     35 O            5.2310    -0.3390     0.3810 os         1 T8P      -0.341100
@<TRIPOS>BOND
     1     1     6 1   
     2     1    11 1   
     3     1    15 1   
     4     2     3 ar  
     5     2     8 1   
     6     2    14 ar  
     7     3     4 ar  
     8     3    17 1   
     9     4    10 ar  
    10     4    18 1   
    11     5     6 1   
    12     5     8 1   
    13     5    19 1   
    14     5    20 1   
    15     6    21 1   
    16     6    22 1   
    17     7     8 1   
    18     7    15 1   
    19     7    23 1   
    20     7    24 1   
    21     9    25 1   
    22     9    26 1   
    23     9    27 1   
    24     9    35 1   
    25    10    13 ar  
    26    10    35 1   
    27    11    12 1   
    28    11    16 2   
    29    12    28 1   
    30    12    29 1   
    31    12    30 1   
    32    13    14 ar  
    33    13    31 1   
    34    14    32 1   
    35    15    33 1   
    36    15    34 1   
@<TRIPOS>SUBSTRUCTURE
     1 T8P         1 TEMP              0 ****  ****    0 ROOT
