@<TRIPOS>MOLECULE
T8P
   35    36     1     0     0
SMALL
bcc


@<TRIPOS>ATOM
      1 N1          -3.1940     0.0940    -0.3040 n          1 T8P      -0.484800
      2 C4           1.0160    -0.0990    -0.1960 ca         1 T8P       0.098600
      3 C5           1.6270    -1.2320     0.3490 ca         1 T8P      -0.129500
      4 C6           3.0000    -1.2930     0.5260 ca         1 T8P      -0.165500
      5 C7          -1.1390    -1.2290    -0.3210 c6         1 T8P       0.171800
      6 C8          -2.5200    -1.0290    -0.9250 c6         1 T8P       0.095000
      7 C10         -1.0420     1.1060     0.2270 c6         1 T8P       0.171800
      8 N           -0.3680    -0.0080    -0.4240 nh         1 T8P      -0.638000
      9 C            5.9880     0.7210     0.0760 c3         1 T8P       0.125700
     10 C1           3.8130    -0.2150     0.1860 ca         1 T8P       0.116100
     11 C11         -4.4170    -0.0370     0.2580 c          1 T8P       0.676100
     12 C12         -5.0290     1.1970     0.8790 c3         1 T8P      -0.177100
     13 C2           3.2180     0.9230    -0.3530 ca         1 T8P      -0.165500
     14 C3           1.8450     0.9680    -0.5450 ca         1 T8P      -0.129500
     15 C9          -2.4220     1.3180    -0.3690 c6         1 T8P       0.095000
     16 O1          -5.0140    -1.1070     0.2700 o          1 T8P      -0.606100
     17 H5           1.0390    -2.0880     0.6520 ha         1 T8P       0.133000
     18 H6           3.4460    -2.1850     0.9480 ha         1 T8P       0.139000
     19 H7          -1.2490    -1.5700     0.7210 h1         1 T8P       0.044700
     20 H8          -0.6370    -2.0230    -0.8750 h1         1 T8P       0.044700
     21 H9          -3.1130    -1.9300    -0.7950 h1         1 T8P       0.060450
     22 H10         -2.4220    -0.8410    -1.9990 h1         1 T8P       0.060450
     23 H13         -1.1370     0.9340     1.3110 h1         1 T8P       0.044700
     24 H14         -0.4670     2.0210     0.0920 h1         1 T8P       0.044700
     25 H2           6.9970     0.4170     0.3440 h1         1 T8P       0.039033
     26 H1           5.9640     0.9510    -0.9930 h1         1 T8P       0.039033
     27 H            5.7360     1.6270     0.6340 h1         1 T8P       0.039033
     28 H17         -5.1410     2.0060     0.1560 hc         1 T8P       0.060033
     29 H15         -6.0130     0.9450     1.2660 hc         1 T8P       0.060033
     30 H16         -4.4250     1.5750     1.7040 hc         1 T8P       0.060033
     31 H3           3.8040     1.7840    -0.6470 ha         1 T8P       0.139000
     32 H4           1.4190     1.8560    -0.9940 ha         1 T8P       0.133000
     33 H11         -2.3240     1.6300    -1.4140 h1         1 T8P       0.060450
     34 H12         -2.9180     2.1220     0.1670 h1         1 T8P       0.060450
     35 O            5.1390    -0.3570     0.4060 os         1 T8P      -0.317900
@<TRIPOS>BOND
     1     1     6 1   
     2     1    11 1   
     3     1    15 1   
     4     2     3 ar  
     5     2     8 1   
     6     2    14 ar  
     7     3     4 ar  
     8     3    17 1   
     9     4    10 ar  
    10     4    18 1   
    11     5     6 1   
    12     5     8 1   
    13     5    19 1   
    14     5    20 1   
    15     6    21 1   
    16     6    22 1   
    17     7     8 1   
    18     7    15 1   
    19     7    23 1   
    20     7    24 1   
    21     9    25 1   
    22     9    26 1   
    23     9    27 1   
    24     9    35 1   
    25    10    13 ar  
    26    10    35 1   
    27    11    12 1   
    28    11    16 2   
    29    12    28 1   
    30    12    29 1   
    31    12    30 1   
    32    13    14 ar  
    33    13    31 1   
    34    14    32 1   
    35    15    33 1   
    36    15    34 1   
@<TRIPOS>SUBSTRUCTURE
     1 T8P         1 TEMP              0 ****  ****    0 ROOT
