@<TRIPOS>MOLECULE
T8Q
   71    74     1     0     0
SMALL
No Charge or Current Charge


@<TRIPOS>ATOM
      1 N1         -30.0800     0.3050    11.8790 nc         1 T8Q      -0.553100
      2 C7         -31.3910     1.3110    13.4660 ca         1 T8Q       0.149500
      3 C8         -30.8490     3.2410    14.5690 ca         1 T8Q       0.180900
      4 N2         -31.7330     2.2360    14.3840 nb         1 T8Q      -0.214000
      5 C9         -29.3500     2.4830    13.0060 ca         1 T8Q       0.438900
      6 O1         -35.1850     1.0630    12.4290 oh         1 T8Q      -0.676000
      7 C1         -34.5140    -0.2040    12.4410 c5         1 T8Q       0.136300
      8 O5         -31.1020    -1.9880     5.9550 o          1 T8Q      -0.559000
      9 C5         -31.2100    -0.3890    12.0950 cd         1 T8Q       0.408700
     10 C6         -30.2150     1.3810    12.7550 ca         1 T8Q      -0.092600
     11 N3         -29.6720     3.4090    13.9260 nb         1 T8Q      -0.301000
     12 C4         -33.3550    -0.3120    13.4880 c5         1 T8Q       0.314300
     13 O4         -32.6920    -1.0680     7.3560 os         1 T8Q      -0.485100
     14 O3         -33.2440    -1.7200    13.8140 os         1 T8Q      -0.455000
     15 C2         -34.4030    -2.4280    13.2970 c5         1 T8Q       0.130300
     16 N4         -28.1280     2.7130    12.3720 nu         1 T8Q      -0.909100
     17 N          -32.0540     0.1850    13.0560 na         1 T8Q      -0.297300
     18 C          -35.4570    -1.3130    12.9780 c5         1 T8Q       0.111300
     19 O          -36.1680    -0.8530    14.1460 oh         1 T8Q      -0.694000
     20 C10        -27.6870     2.1760    11.0730 c3         1 T8Q       0.227800
     21 C11        -28.5530     2.7390     9.9230 c3         1 T8Q      -0.102400
     22 C12        -28.3400     1.9870     8.5900 c3         1 T8Q      -0.071400
     23 C13        -29.1380     2.5480     7.3660 c6         1 T8Q      -0.051700
     24 C14        -30.6680     2.6020     7.5700 c6         1 T8Q      -0.088400
     25 C15        -31.2870     1.1960     7.7390 c6         1 T8Q       0.116500
     26 C17        -33.5570    -2.2230     7.4470 c3         1 T8Q       0.218000
     27 C18        -34.0980    -2.5900     6.0410 c3         1 T8Q      -0.106767
     28 C19        -32.7930    -3.3870     8.1300 c3         1 T8Q      -0.106767
     29 C20        -34.7190    -1.7540     8.3500 c3         1 T8Q      -0.106767
     30 C21        -29.4720     0.2930     6.1720 c6         1 T8Q       0.116500
     31 C22        -28.8890     1.7270     6.0830 c6         1 T8Q      -0.088400
     32 N5         -30.8550     0.1750     6.7300 n          1 T8Q      -0.410800
     33 H1         -31.1120     3.9920    15.3110 h5         1 T8Q       0.048100
     34 H2         -35.8770     0.9690    13.1300 ho         1 T8Q       0.511000
     35 H3         -34.1470    -0.4470    11.4350 h1         1 T8Q       0.041700
     36 H4         -31.4850    -1.3080    11.5910 h5         1 T8Q       0.061800
     37 H5         -33.6260     0.2450    14.3950 h2         1 T8Q       0.131700
     38 H6         -33.5370    -2.6350    11.2990 h1         1 T8Q       0.036200
     39 H7         -33.1750    -3.9740    12.4010 h1         1 T8Q       0.036200
     40 H8         -34.7710    -3.1160    14.0710 h1         1 T8Q       0.088700
     41 H9         -27.6400     3.5420    12.7130 hn         1 T8Q       0.500000
     42 H10        -36.1660    -1.6410    12.2030 h1         1 T8Q       0.066700
     43 H11        -36.7570    -1.5870    14.4440 ho         1 T8Q       0.509000
     44 H12        -27.7380     1.0790    11.0780 h1         1 T8Q       0.065200
     45 H13        -26.6370     2.4460    10.8880 h1         1 T8Q       0.065200
     46 H14        -28.3320     3.8050     9.7900 hc         1 T8Q       0.046700
     47 H15        -29.6090     2.6620    10.2040 hc         1 T8Q       0.046700
     48 H16        -28.5890     0.9320     8.7570 hc         1 T8Q       0.046700
     49 H17        -27.2680     2.0060     8.3530 hc         1 T8Q       0.046700
     50 H18        -28.7720     3.5720     7.2010 hc         1 T8Q       0.045700
     51 H19        -31.1300     3.0870     6.6990 hc         1 T8Q       0.048950
     52 H20        -30.9310     3.2330     8.4280 hc         1 T8Q       0.048950
     53 H21        -32.3800     1.3100     7.7050 h1         1 T8Q       0.053450
     54 H22        -31.0380     0.8150     8.7390 h1         1 T8Q       0.053450
     55 H23        -34.4600    -1.6970     5.5180 hc         1 T8Q       0.048478
     56 H24        -33.3360    -3.0710     5.4190 hc         1 T8Q       0.048478
     57 H25        -34.9350    -3.2940     6.1260 hc         1 T8Q       0.048478
     58 H26        -32.2920    -3.0420     9.0430 hc         1 T8Q       0.048478
     59 H27        -33.4870    -4.1890     8.4070 hc         1 T8Q       0.048478
     60 H28        -32.0390    -3.8260     7.4680 hc         1 T8Q       0.048478
     61 H29        -34.3460    -1.4290     9.3270 hc         1 T8Q       0.048478
     62 H30        -35.2520    -0.9120     7.8920 hc         1 T8Q       0.048478
     63 H31        -35.4400    -2.5640     8.5130 hc         1 T8Q       0.048478
     64 H32        -28.8050    -0.3210     6.7940 h1         1 T8Q       0.053450
     65 H33        -29.4510    -0.1480     5.1650 h1         1 T8Q       0.053450
     66 H34        -27.8140     1.6760     5.8630 hc         1 T8Q       0.048950
     67 H35        -29.3470     2.2430     5.2280 hc         1 T8Q       0.048950
     68 H36        -34.7140    -4.6980    10.9200 ho         1 T8Q       0.512000
     69 C3         -33.9660    -3.2850    12.0730 c3         1 T8Q       0.143600
     70 C16        -31.5280    -1.0580     6.6230 c          1 T8Q       0.651100
     71 O2         -35.0780    -4.0270    11.5450 oh         1 T8Q      -0.731000
@<TRIPOS>BOND
     1     1     9 2   
     2     1    10 1   
     3     2     4 ar  
     4     2    10 ar  
     5     2    17 1   
     6     3     4 ar  
     7     3    11 ar  
     8     3    33 1   
     9     5    10 ar  
    10     5    11 ar  
    11     5    16 1   
    12     6     7 1   
    13     6    34 1   
    14     7    12 1   
    15     7    18 1   
    16     7    35 1   
    17     8    70 2   
    18     9    17 1   
    19     9    36 1   
    20    12    14 1   
    21    12    17 1   
    22    12    37 1   
    23    13    26 1   
    24    13    70 1   
    25    14    15 1   
    26    15    18 1   
    27    15    40 1   
    28    15    69 1   
    29    16    20 1   
    30    16    41 1   
    31    18    19 1   
    32    18    42 1   
    33    19    43 1   
    34    20    21 1   
    35    20    44 1   
    36    20    45 1   
    37    21    22 1   
    38    21    46 1   
    39    21    47 1   
    40    22    23 1   
    41    22    48 1   
    42    22    49 1   
    43    23    24 1   
    44    23    31 1   
    45    23    50 1   
    46    24    25 1   
    47    24    51 1   
    48    24    52 1   
    49    25    32 1   
    50    25    53 1   
    51    25    54 1   
    52    26    27 1   
    53    26    28 1   
    54    26    29 1   
    55    27    55 1   
    56    27    56 1   
    57    27    57 1   
    58    28    58 1   
    59    28    59 1   
    60    28    60 1   
    61    29    61 1   
    62    29    62 1   
    63    29    63 1   
    64    30    31 1   
    65    30    32 1   
    66    30    64 1   
    67    30    65 1   
    68    31    66 1   
    69    31    67 1   
    70    32    70 1   
    71    38    69 1   
    72    39    69 1   
    73    68    71 1   
    74    69    71 1   
@<TRIPOS>SUBSTRUCTURE
     1 T8Q         1 TEMP              0 ****  ****    0 ROOT
