@<TRIPOS>MOLECULE
T8Q
   71    74     1     0     0
SMALL
abcg2


@<TRIPOS>ATOM
      1 N1         -30.4100     0.3440    11.7080 nc         1 T8Q      -0.553100
      2 C7         -31.4770     1.2760    13.4970 ca         1 T8Q       0.149500
      3 C8         -30.7790     2.9510    14.7570 ca         1 T8Q       0.180900
      4 N2         -31.7470     2.0590    14.5450 nb         1 T8Q      -0.214000
      5 C9         -29.3920     2.3300    13.0010 ca         1 T8Q       0.438900
      6 O1         -35.1390     1.1300    12.2750 oh         1 T8Q      -0.676000
      7 C1         -34.6360    -0.1770    12.4290 c5         1 T8Q       0.136300
      8 O5         -31.1850    -1.6070     5.5690 o          1 T8Q      -0.559000
      9 C5         -31.5430    -0.2680    11.9230 cd         1 T8Q       0.408700
     10 C6         -30.3400     1.3300    12.6850 ca         1 T8Q      -0.092600
     11 N3         -29.6560     3.1280    14.0630 nb         1 T8Q      -0.301000
     12 C4         -33.5310    -0.1810    13.4850 c5         1 T8Q       0.314300
     13 O4         -32.3430    -1.0250     7.4460 os         1 T8Q      -0.485100
     14 O3         -33.4430    -1.5210    13.9430 os         1 T8Q      -0.455000
     15 C2         -34.6260    -2.2620    13.5580 c5         1 T8Q       0.130300
     16 N4         -28.2410     2.5460    12.3430 nu         1 T8Q      -0.909100
     17 N          -32.2450     0.2500    12.9900 na         1 T8Q      -0.297300
     18 C          -35.6010    -1.2320    12.9770 c5         1 T8Q       0.111300
     19 O          -36.4000    -0.6280    13.9860 oh         1 T8Q      -0.694000
     20 C10        -27.8890     1.9570    11.0570 c3         1 T8Q       0.227800
     21 C11        -28.6580     2.5680     9.8860 c3         1 T8Q      -0.102400
     22 C12        -28.4500     1.7770     8.5990 c3         1 T8Q      -0.071400
     23 C13        -29.0560     2.4210     7.3450 c6         1 T8Q      -0.051700
     24 C14        -30.5620     2.6870     7.4720 c6         1 T8Q      -0.088400
     25 C15        -31.3700     1.3990     7.5800 c6         1 T8Q       0.116500
     26 C17        -33.0680    -2.2990     7.5770 c3         1 T8Q       0.218000
     27 C18        -33.9510    -2.5370     6.3570 c3         1 T8Q      -0.106767
     28 C19        -32.0840    -3.4390     7.8200 c3         1 T8Q      -0.106767
     29 C20        -33.9260    -2.0660     8.8140 c3         1 T8Q      -0.106767
     30 C21        -30.0630     0.9580     5.4910 c6         1 T8Q       0.116500
     31 C22        -28.7850     1.5400     6.0940 c6         1 T8Q      -0.088400
     32 N5         -30.9560     0.4540     6.5320 n          1 T8Q      -0.410800
     33 H1         -30.9230     3.6230    15.5980 h5         1 T8Q       0.048100
     34 H2         -35.6480     1.1720    11.4560 ho         1 T8Q       0.511000
     35 H3         -34.2320    -0.5480    11.4850 h1         1 T8Q       0.041700
     36 H4         -31.9180    -1.1040    11.3560 h5         1 T8Q       0.061800
     37 H5         -33.7870     0.4960    14.3020 h2         1 T8Q       0.131700
     38 H6         -33.8460    -2.9330    11.6600 h1         1 T8Q       0.036200
     39 H7         -33.4010    -3.9370    13.0510 h1         1 T8Q       0.036200
     40 H8         -35.0530    -2.7130    14.4570 h1         1 T8Q       0.088700
     41 H9         -27.7250     3.3590    12.6460 hn         1 T8Q       0.500000
     42 H10        -36.2230    -1.6680    12.1930 h1         1 T8Q       0.066700
     43 H11        -36.9780    -1.3070    14.3570 ho         1 T8Q       0.509000
     44 H12        -28.0780     0.8860    11.1010 h1         1 T8Q       0.065200
     45 H13        -26.8170     2.0980    10.9230 h1         1 T8Q       0.065200
     46 H14        -28.3450     3.6080     9.7490 hc         1 T8Q       0.046700
     47 H15        -29.7180     2.5860    10.1440 hc         1 T8Q       0.046700
     48 H16        -28.8580     0.7690     8.7310 hc         1 T8Q       0.046700
     49 H17        -27.3770     1.6470     8.4230 hc         1 T8Q       0.046700
     50 H18        -28.5650     3.3870     7.2070 hc         1 T8Q       0.045700
     51 H19        -30.8970     3.2630     6.6060 hc         1 T8Q       0.048950
     52 H20        -30.7780     3.3000     8.3480 hc         1 T8Q       0.048950
     53 H21        -32.4380     1.6140     7.4920 h1         1 T8Q       0.053450
     54 H22        -31.2150     0.9370     8.5550 h1         1 T8Q       0.053450
     55 H23        -34.5990    -1.6750     6.1880 hc         1 T8Q       0.048478
     56 H24        -33.3570    -2.7160     5.4640 hc         1 T8Q       0.048478
     57 H25        -34.5820    -3.4090     6.5400 hc         1 T8Q       0.048478
     58 H26        -31.4390    -3.2020     8.6680 hc         1 T8Q       0.048478
     59 H27        -32.6410    -4.3480     8.0570 hc         1 T8Q       0.048478
     60 H28        -31.4680    -3.6230     6.9440 hc         1 T8Q       0.048478
     61 H29        -33.2940    -1.8660     9.6770 hc         1 T8Q       0.048478
     62 H30        -34.5960    -1.2180     8.6660 hc         1 T8Q       0.048478
     63 H31        -34.5250    -2.9530     9.0230 hc         1 T8Q       0.048478
     64 H32        -29.8340     0.1350     4.8220 h1         1 T8Q       0.053450
     65 H33        -30.5900     1.7180     4.9070 h1         1 T8Q       0.053450
     66 H34        -28.1180     0.7190     6.3660 hc         1 T8Q       0.048950
     67 H35        -28.2760     2.1170     5.3190 hc         1 T8Q       0.048950
     68 H36        -35.1280    -4.8460    11.7010 ho         1 T8Q       0.512000
     69 C3         -34.2140    -3.3640    12.5950 c3         1 T8Q       0.143600
     70 C16        -31.4710    -0.7940     6.4420 c          1 T8Q       0.651100
     71 O2         -35.3570    -4.1840    12.3640 oh         1 T8Q      -0.731000
@<TRIPOS>BOND
     1     1     9 2   
     2     1    10 1   
     3     2     4 ar  
     4     2    10 ar  
     5     2    17 1   
     6     3     4 ar  
     7     3    11 ar  
     8     3    33 1   
     9     5    10 ar  
    10     5    11 ar  
    11     5    16 1   
    12     6     7 1   
    13     6    34 1   
    14     7    12 1   
    15     7    18 1   
    16     7    35 1   
    17     8    70 2   
    18     9    17 1   
    19     9    36 1   
    20    12    14 1   
    21    12    17 1   
    22    12    37 1   
    23    13    26 1   
    24    13    70 1   
    25    14    15 1   
    26    15    18 1   
    27    15    40 1   
    28    15    69 1   
    29    16    20 1   
    30    16    41 1   
    31    18    19 1   
    32    18    42 1   
    33    19    43 1   
    34    20    21 1   
    35    20    44 1   
    36    20    45 1   
    37    21    22 1   
    38    21    46 1   
    39    21    47 1   
    40    22    23 1   
    41    22    48 1   
    42    22    49 1   
    43    23    24 1   
    44    23    31 1   
    45    23    50 1   
    46    24    25 1   
    47    24    51 1   
    48    24    52 1   
    49    25    32 1   
    50    25    53 1   
    51    25    54 1   
    52    26    27 1   
    53    26    28 1   
    54    26    29 1   
    55    27    55 1   
    56    27    56 1   
    57    27    57 1   
    58    28    58 1   
    59    28    59 1   
    60    28    60 1   
    61    29    61 1   
    62    29    62 1   
    63    29    63 1   
    64    30    31 1   
    65    30    32 1   
    66    30    64 1   
    67    30    65 1   
    68    31    66 1   
    69    31    67 1   
    70    32    70 1   
    71    38    69 1   
    72    39    69 1   
    73    68    71 1   
    74    69    71 1   
@<TRIPOS>SUBSTRUCTURE
     1 T8Q         1 TEMP              0 ****  ****    0 ROOT
