@<TRIPOS>MOLECULE
T8R
   48    51     1     0     0
SMALL
abcg2


@<TRIPOS>ATOM
      1 C10         -3.9510   -33.7030    27.8170 cc         1 T8R      -0.413200
      2 C13         -4.7360   -34.1280    30.0820 ca         1 T8R      -0.366600
      3 C17         -5.3230   -33.0440    32.5840 ca         1 T8R       0.232100
      4 C20         -4.5560   -32.7670    30.3510 ca         1 T8R       0.231100
      5 C22         -3.1270   -29.9410    27.5560 ca         1 T8R      -0.053800
      6 C24         -2.9590   -27.7800    28.5900 ca         1 T8R      -0.128000
      7 C26         -2.3860   -27.9910    26.2390 ca         1 T8R      -0.119000
      8 C01          0.1510   -28.4230    20.4710 c3         1 T8R      -0.090100
      9 C02         -0.4060   -28.5900    21.8820 c3         1 T8R      -0.078400
     10 C03         -0.1910   -29.9990    22.4350 c3         1 T8R      -0.075400
     11 C04         -0.6730   -30.1940    23.8740 c3         1 T8R      -0.098400
     12 C05         -2.1950   -30.1480    23.9990 c3         1 T8R       0.073600
     13 C07         -3.0210   -31.5130    25.9230 cc         1 T8R      -0.086100
     14 C08         -3.3360   -31.3430    27.2650 cd         1 T8R      -0.159200
     15 C09         -3.7970   -32.3840    28.1400 cd         1 T8R       0.272100
     16 C11         -4.4280   -34.6530    28.7660 c          1 T8R       0.615900
     17 C14         -5.2250   -34.9510    31.1240 ca         1 T8R       0.281100
     18 C16         -5.5180   -34.4110    32.3660 ca         1 T8R      -0.298000
     19 C19         -4.8400   -32.2040    31.5830 ca         1 T8R      -0.230000
     20 C23         -3.2600   -29.1290    28.6920 ca         1 T8R      -0.057000
     21 C25         -2.5280   -27.2140    27.3790 ca         1 T8R      -0.094000
     22 C27         -2.6900   -29.3460    26.3450 ca         1 T8R      -0.060200
     23 N06         -2.6460   -30.3330    25.3740 na         1 T8R      -0.079700
     24 O12         -4.5810   -35.8770    28.5000 o          1 T8R      -0.619100
     25 O15         -5.4070   -36.2640    30.9040 oh         1 T8R      -0.553100
     26 O18         -5.5980   -32.4730    33.7820 oh         1 T8R      -0.528100
     27 O21         -4.0870   -31.9270    29.3840 os         1 T8R      -0.218200
     28 H1          -3.7110   -34.0440    26.8200 ha         1 T8R       0.209000
     29 H3          -3.0580   -27.1470    29.4630 ha         1 T8R       0.115000
     30 H4          -2.0480   -27.5600    25.3070 ha         1 T8R       0.116000
     31 H5          -0.0090   -27.4100    20.0960 hc         1 T8R       0.035033
     32 H6           1.2260   -28.6230    20.4490 hc         1 T8R       0.035033
     33 H7          -0.3300   -29.1160    19.7760 hc         1 T8R       0.035033
     34 H8           0.0710   -27.8680    22.5540 hc         1 T8R       0.036700
     35 H9          -1.4730   -28.3480    21.8780 hc         1 T8R       0.036700
     36 H10         -0.6900   -30.7260    21.7840 hc         1 T8R       0.044700
     37 H11          0.8770   -30.2330    22.3930 hc         1 T8R       0.044700
     38 H12         -0.3300   -31.1610    24.2500 hc         1 T8R       0.055700
     39 H13         -0.2340   -29.4260    24.5180 hc         1 T8R       0.055700
     40 H14         -2.5930   -29.1970    23.6480 h1         1 T8R       0.063200
     41 H15         -2.6470   -30.9370    23.3980 h1         1 T8R       0.063200
     42 H16         -3.0510   -32.4050    25.3190 h4         1 T8R       0.223000
     43 H18         -5.8940   -35.0470    33.1580 ha         1 T8R       0.136000
     44 H19         -4.6930   -31.1490    31.7610 ha         1 T8R       0.148000
     45 H20         -3.5900   -29.5440    29.6320 ha         1 T8R       0.129000
     46 H21         -2.3000   -26.1570    27.3340 ha         1 T8R       0.114000
     47 H22         -5.1350   -36.4170    29.9510 ho         1 T8R       0.529000
     48 H23         -5.9250   -33.1390    34.4050 ho         1 T8R       0.473000
@<TRIPOS>BOND
     1     1    15 2   
     2     1    16 1   
     3     1    28 1   
     4     2     4 ar  
     5     2    16 1   
     6     2    17 ar  
     7     3    18 ar  
     8     3    19 ar  
     9     3    26 1   
    10     4    19 ar  
    11     4    27 1   
    12     5    14 1   
    13     5    20 ar  
    14     5    22 ar  
    15     6    20 ar  
    16     6    21 ar  
    17     6    29 1   
    18     7    21 ar  
    19     7    22 ar  
    20     7    30 1   
    21     8     9 1   
    22     8    31 1   
    23     8    32 1   
    24     8    33 1   
    25     9    10 1   
    26     9    34 1   
    27     9    35 1   
    28    10    11 1   
    29    10    36 1   
    30    10    37 1   
    31    11    12 1   
    32    11    38 1   
    33    11    39 1   
    34    12    23 1   
    35    12    40 1   
    36    12    41 1   
    37    13    14 2   
    38    13    23 1   
    39    13    42 1   
    40    14    15 1   
    41    15    27 1   
    42    16    24 2   
    43    17    18 ar  
    44    17    25 1   
    45    18    43 1   
    46    19    44 1   
    47    20    45 1   
    48    21    46 1   
    49    22    23 1   
    50    25    47 1   
    51    26    48 1   
@<TRIPOS>SUBSTRUCTURE
     1 T8R         1 TEMP              0 ****  ****    0 ROOT
