@<TRIPOS>MOLECULE
T8R
   48    51     1     0     0
SMALL
No Charge or Current Charge


@<TRIPOS>ATOM
      1 C10         -4.0080   -33.5850    27.8290 cc         1 T8R      -0.413200
      2 C13         -4.7880   -34.1220    30.1330 ca         1 T8R      -0.366600
      3 C17         -5.3280   -33.1500    32.7100 ca         1 T8R       0.232100
      4 C20         -4.5890   -32.7690    30.4350 ca         1 T8R       0.231100
      5 C22         -3.1270   -29.8550    27.5150 ca         1 T8R      -0.053800
      6 C24         -2.9570   -27.6790    28.5410 ca         1 T8R      -0.128000
      7 C26         -2.3400   -27.9880    26.1880 ca         1 T8R      -0.119000
      8 C01          0.1640   -28.4280    20.3930 c3         1 T8R      -0.090100
      9 C02         -0.4280   -28.6050    21.8050 c3         1 T8R      -0.078400
     10 C03         -0.1130   -29.9880    22.4220 c3         1 T8R      -0.075400
     11 C04         -0.6260   -30.1680    23.8700 c3         1 T8R      -0.098400
     12 C05         -2.1650   -30.1520    24.0030 c3         1 T8R       0.073600
     13 C07         -3.0420   -31.5890    25.9540 cc         1 T8R      -0.086100
     14 C08         -3.3570   -31.2680    27.2740 cd         1 T8R      -0.159200
     15 C09         -3.8380   -32.2700    28.2020 cd         1 T8R       0.272100
     16 C11         -4.4900   -34.5950    28.7560 c          1 T8R       0.615900
     17 C14         -5.2610   -34.9850    31.1350 ca         1 T8R       0.281100
     18 C16         -5.5300   -34.5020    32.4190 ca         1 T8R      -0.298000
     19 C19         -4.8580   -32.2830    31.7210 ca         1 T8R      -0.230000
     20 C23         -3.2840   -29.0470    28.6530 ca         1 T8R      -0.057000
     21 C25         -2.4870   -27.1520    27.3150 ca         1 T8R      -0.094000
     22 C27         -2.6730   -29.3470    26.3250 ca         1 T8R      -0.060200
     23 N06         -2.6200   -30.3720    25.3870 na         1 T8R      -0.079700
     24 O12         -4.6430   -35.7640    28.4300 o          1 T8R      -0.619100
     25 O15         -5.4620   -36.2980    30.8710 oh         1 T8R      -0.553100
     26 O18         -5.5870   -32.6740    33.9560 oh         1 T8R      -0.528100
     27 O21         -4.1290   -31.8960    29.4830 os         1 T8R      -0.218200
     28 H1          -3.8000   -33.9570    26.8380 ha         1 T8R       0.209000
     29 H3          -3.0670   -27.0260    29.4030 ha         1 T8R       0.115000
     30 H4          -1.9780   -27.5840    25.2460 ha         1 T8R       0.116000
     31 H5          -0.0840   -27.4370    19.9960 hc         1 T8R       0.035033
     32 H6           1.2560   -28.5250    20.4150 hc         1 T8R       0.035033
     33 H7          -0.2380   -29.1830    19.7070 hc         1 T8R       0.035033
     34 H8          -0.0320   -27.8170    22.4580 hc         1 T8R       0.036700
     35 H9          -1.5130   -28.4610    21.7480 hc         1 T8R       0.036700
     36 H10         -0.5390   -30.7760    21.7870 hc         1 T8R       0.044700
     37 H11          0.9740   -30.1370    22.4190 hc         1 T8R       0.044700
     38 H12         -0.2510   -31.1240    24.2560 hc         1 T8R       0.055700
     39 H13         -0.1960   -29.3840    24.5060 hc         1 T8R       0.055700
     40 H14         -2.5660   -29.1950    23.6500 h1         1 T8R       0.063200
     41 H15         -2.5910   -30.9410    23.3700 h1         1 T8R       0.063200
     42 H16         -3.0720   -32.5140    25.3900 h4         1 T8R       0.223000
     43 H18         -5.8950   -35.1850    33.1810 ha         1 T8R       0.136000
     44 H19         -4.7010   -31.2330    31.9470 ha         1 T8R       0.148000
     45 H20         -3.6430   -29.4500    29.5960 ha         1 T8R       0.129000
     46 H21         -2.2380   -26.0960    27.2400 ha         1 T8R       0.114000
     47 H22         -5.2100   -36.4080    29.9170 ho         1 T8R       0.529000
     48 H23         -5.9040   -33.4210    34.5050 ho         1 T8R       0.473000
@<TRIPOS>BOND
     1     1    15 2   
     2     1    16 1   
     3     1    28 1   
     4     2     4 ar  
     5     2    16 1   
     6     2    17 ar  
     7     3    18 ar  
     8     3    19 ar  
     9     3    26 1   
    10     4    19 ar  
    11     4    27 1   
    12     5    14 1   
    13     5    20 ar  
    14     5    22 ar  
    15     6    20 ar  
    16     6    21 ar  
    17     6    29 1   
    18     7    21 ar  
    19     7    22 ar  
    20     7    30 1   
    21     8     9 1   
    22     8    31 1   
    23     8    32 1   
    24     8    33 1   
    25     9    10 1   
    26     9    34 1   
    27     9    35 1   
    28    10    11 1   
    29    10    36 1   
    30    10    37 1   
    31    11    12 1   
    32    11    38 1   
    33    11    39 1   
    34    12    23 1   
    35    12    40 1   
    36    12    41 1   
    37    13    14 2   
    38    13    23 1   
    39    13    42 1   
    40    14    15 1   
    41    15    27 1   
    42    16    24 2   
    43    17    18 ar  
    44    17    25 1   
    45    18    43 1   
    46    19    44 1   
    47    20    45 1   
    48    21    46 1   
    49    22    23 1   
    50    25    47 1   
    51    26    48 1   
@<TRIPOS>SUBSTRUCTURE
     1 T8R         1 TEMP              0 ****  ****    0 ROOT
