@<TRIPOS>MOLECULE
T8S
   38    38     1     0     0
SMALL
No Charge or Current Charge


@<TRIPOS>ATOM
      1 N1          -2.9290     0.2030    -0.3490 n          1 T8S      -0.411800
      2 C4           1.3660    -0.2530     0.4360 c          1 T8S       0.607100
      3 C5          -0.0110    -0.0220    -0.2500 c6         1 T8S      -0.135700
      4 C6          -0.9230    -1.2820    -0.2740 c6         1 T8S      -0.091900
      5 C7          -2.2670    -0.9750    -0.9760 c6         1 T8S       0.095000
      6 C8          -2.1030     1.4370    -0.4250 c6         1 T8S       0.095000
      7 C10         -4.1010     0.1290     0.4440 c          1 T8S       0.608100
      8 N            2.5660     0.1820    -0.1920 n          1 T8S      -0.410800
      9 C            4.9190    -0.6350    -0.6350 c3         1 T8S      -0.104100
     10 O            1.4010    -0.8160     1.5240 o          1 T8S      -0.608100
     11 C1           3.8900    -0.1450     0.4100 c3         1 T8S       0.104700
     12 C11         -4.8930    -1.1790     0.4900 c3         1 T8S      -0.177100
     13 C2           4.4440     1.0300     1.2460 c3         1 T8S      -0.104100
     14 C3           2.5430     1.1410    -1.3270 c3         1 T8S       0.092300
     15 C9          -0.7470     1.2350     0.2940 c6         1 T8S      -0.091900
     16 O1          -4.5020     1.1030     1.0680 o          1 T8S      -0.606100
     17 H10          0.1940     0.2150    -1.3010 hc         1 T8S       0.056700
     18 H11         -0.4140    -2.1100    -0.7870 hc         1 T8S       0.061450
     19 H12         -1.1210    -1.6210     0.7520 hc         1 T8S       0.061450
     20 H13         -2.9030    -1.8690    -0.9530 h1         1 T8S       0.054950
     21 H14         -2.0790    -0.7500    -2.0360 h1         1 T8S       0.054950
     22 H15         -1.9230     1.6800    -1.4820 h1         1 T8S       0.054950
     23 H16         -2.6290     2.2960     0.0160 h1         1 T8S       0.054950
     24 H2           5.2130     0.1660    -1.3240 hc         1 T8S       0.040200
     25 H1           5.8260    -0.9970    -0.1350 hc         1 T8S       0.040200
     26 H            4.5040    -1.4620    -1.2220 hc         1 T8S       0.040200
     27 H3           3.7560    -0.9870     1.1020 h1         1 T8S       0.083700
     28 H21         -4.2470    -1.9760     0.8750 hc         1 T8S       0.060367
     29 H19         -5.8090    -1.0930     1.0860 hc         1 T8S       0.060367
     30 H20         -5.1090    -1.5090    -0.5320 hc         1 T8S       0.060367
     31 H4           4.6550     1.9020     0.6150 hc         1 T8S       0.040200
     32 H5           3.7200     1.3280     2.0130 hc         1 T8S       0.040200
     33 H6           5.3730     0.7390     1.7500 hc         1 T8S       0.040200
     34 H9           1.7850     1.9150    -1.1550 h1         1 T8S       0.037033
     35 H8           3.5120     1.6420    -1.4380 h1         1 T8S       0.037033
     36 H7           2.3140     0.6070    -2.2570 h1         1 T8S       0.037033
     37 H17         -0.9240     1.1200     1.3730 hc         1 T8S       0.061450
     38 H18         -0.1260     2.1320     0.1750 hc         1 T8S       0.061450
@<TRIPOS>BOND
     1     1     5 1   
     2     1     6 1   
     3     1     7 1   
     4     2     3 1   
     5     2     8 1   
     6     2    10 2   
     7     3     4 1   
     8     3    15 1   
     9     3    17 1   
    10     4     5 1   
    11     4    18 1   
    12     4    19 1   
    13     5    20 1   
    14     5    21 1   
    15     6    15 1   
    16     6    22 1   
    17     6    23 1   
    18     7    12 1   
    19     7    16 2   
    20     8    11 1   
    21     8    14 1   
    22     9    11 1   
    23     9    24 1   
    24     9    25 1   
    25     9    26 1   
    26    11    13 1   
    27    11    27 1   
    28    12    28 1   
    29    12    29 1   
    30    12    30 1   
    31    13    31 1   
    32    13    32 1   
    33    13    33 1   
    34    14    34 1   
    35    14    35 1   
    36    14    36 1   
    37    15    37 1   
    38    15    38 1   
@<TRIPOS>SUBSTRUCTURE
     1 T8S         1 TEMP              0 ****  ****    0 ROOT
