@<TRIPOS>MOLECULE
T8S
   38    38     1     0     0
SMALL
bcc


@<TRIPOS>ATOM
      1 N1          -2.8080     0.2010    -0.3340 n          1 T8S      -0.478800
      2 C4           1.3850    -0.5590     0.1010 c          1 T8S       0.674100
      3 C5           0.0470    -0.2040    -0.5330 c6         1 T8S      -0.135700
      4 C6          -0.9360    -1.3700    -0.4900 c6         1 T8S      -0.091900
      5 C7          -2.2840    -0.9430    -1.0580 c6         1 T8S       0.095000
      6 C8          -1.9290     1.3560    -0.3860 c6         1 T8S       0.095000
      7 C10         -3.8720     0.1720     0.4980 c          1 T8S       0.675100
      8 N            2.4400     0.2500    -0.1460 n          1 T8S      -0.477800
      9 C            4.6780    -0.7750    -0.2920 c3         1 T8S      -0.104100
     10 O            1.4720    -1.5240     0.8530 o          1 T8S      -0.608100
     11 C1           3.7000     0.0170     0.5680 c3         1 T8S       0.104700
     12 C11         -4.6680    -1.1130     0.5620 c3         1 T8S      -0.177100
     13 C2           4.3050     1.3220     1.0730 c3         1 T8S      -0.104100
     14 C3           2.4380     1.3320    -1.1110 c3         1 T8S       0.092300
     15 C9          -0.5560     1.0160     0.1790 c6         1 T8S      -0.091900
     16 O1          -4.2000     1.1410     1.1720 o          1 T8S      -0.606100
     17 H10          0.1890     0.0560    -1.5860 hc         1 T8S       0.056700
     18 H11         -0.5570    -2.2130    -1.0710 hc         1 T8S       0.061450
     19 H12         -1.0740    -1.7190     0.5360 hc         1 T8S       0.061450
     20 H13         -2.9860    -1.7720    -1.0290 h1         1 T8S       0.054950
     21 H14         -2.1750    -0.6630    -2.1110 h1         1 T8S       0.054950
     22 H15         -1.8320     1.6740    -1.4300 h1         1 T8S       0.054950
     23 H16         -2.3770     2.1780     0.1650 h1         1 T8S       0.054950
     24 H2           4.9450    -0.2370    -1.2040 hc         1 T8S       0.040200
     25 H1           5.6010    -0.9640     0.2580 hc         1 T8S       0.040200
     26 H            4.2530    -1.7370    -0.5780 hc         1 T8S       0.040200
     27 H3           3.4500    -0.5870     1.4390 h1         1 T8S       0.083700
     28 H21         -4.0670    -1.9430     0.9360 hc         1 T8S       0.060367
     29 H19         -5.5100    -0.9720     1.2350 hc         1 T8S       0.060367
     30 H20         -5.0530    -1.4040    -0.4150 hc         1 T8S       0.060367
     31 H4           4.6760     1.9540     0.2650 hc         1 T8S       0.040200
     32 H5           3.5820     1.8970     1.6530 hc         1 T8S       0.040200
     33 H6           5.1500     1.0980     1.7240 hc         1 T8S       0.040200
     34 H9           2.2420     2.3030    -0.6520 h1         1 T8S       0.037033
     35 H8           3.4080     1.3840    -1.6040 h1         1 T8S       0.037033
     36 H7           1.7030     1.1740    -1.8940 h1         1 T8S       0.037033
     37 H17         -0.6490     0.8050     1.2480 hc         1 T8S       0.061450
     38 H18          0.0910     1.8900     0.0800 hc         1 T8S       0.061450
@<TRIPOS>BOND
     1     1     5 1   
     2     1     6 1   
     3     1     7 1   
     4     2     3 1   
     5     2     8 1   
     6     2    10 2   
     7     3     4 1   
     8     3    15 1   
     9     3    17 1   
    10     4     5 1   
    11     4    18 1   
    12     4    19 1   
    13     5    20 1   
    14     5    21 1   
    15     6    15 1   
    16     6    22 1   
    17     6    23 1   
    18     7    12 1   
    19     7    16 2   
    20     8    11 1   
    21     8    14 1   
    22     9    11 1   
    23     9    24 1   
    24     9    25 1   
    25     9    26 1   
    26    11    13 1   
    27    11    27 1   
    28    12    28 1   
    29    12    29 1   
    30    12    30 1   
    31    13    31 1   
    32    13    32 1   
    33    13    33 1   
    34    14    34 1   
    35    14    35 1   
    36    14    36 1   
    37    15    37 1   
    38    15    38 1   
@<TRIPOS>SUBSTRUCTURE
     1 T8S         1 TEMP              0 ****  ****    0 ROOT
