@<TRIPOS>MOLECULE
T8U
   53    56     1     0     0
SMALL
abcg2


@<TRIPOS>ATOM
      1 C10          2.6570    -2.3520    83.1180 ca         1 T8U      -0.177600
      2 C13          0.4740    -1.0220    84.2370 ca         1 T8U       0.142600
      3 C15          1.3750    -2.8320    82.8470 ca         1 T8U       0.082700
      4 C26         -5.5300    -2.6720    84.8910 ca         1 T8U      -0.069500
      5 C28         -5.4700    -4.1920    86.7200 ca         1 T8U       0.165000
      6 C1           5.9040    -6.2140    82.2200 c6         1 T8U      -0.073200
      7 C2           5.5140    -6.8620    83.5420 c6         1 T8U      -0.063400
      8 C3           4.0350    -6.6220    83.8270 c6         1 T8U      -0.180400
      9 C4           3.6830    -5.1510    83.8340 c          1 T8U       0.605300
     10 C5           4.3310    -4.3040    82.8190 ce         1 T8U      -0.485400
     11 C6           5.4170    -4.8100    82.1030 c2         1 T8U       0.283900
     12 C9           3.8970    -2.9470    82.5360 c          1 T8U       0.638900
     13 C11          2.8390    -1.2150    83.9050 ca         1 T8U       0.001000
     14 C12          1.7710    -0.5560    84.4710 ca         1 T8U      -0.185000
     15 C14          0.2730    -2.1610    83.4290 ca         1 T8U      -0.215600
     16 C16         -1.1010    -2.6360    83.2320 c          1 T8U       0.594600
     17 C19         -1.9120    -0.6900    84.5300 c          1 T8U       0.619000
     18 C23          1.2010    -4.0050    81.9220 c3         1 T8U      -0.059800
     19 C25         -4.1720    -2.8840    84.6580 ca         1 T8U      -0.109300
     20 C27         -6.1940    -3.3270    85.9220 ca         1 T8U      -0.147000
     21 C29         -4.1200    -4.4220    86.5290 ca         1 T8U      -0.147000
     22 C30         -3.4760    -3.7620    85.4870 ca         1 T8U      -0.069500
     23 N17         -0.6070    -0.3500    84.7950 n          1 T8U      -0.306000
     24 N18         -2.1090    -1.8180    83.7450 n          1 T8U      -0.377400
     25 O7           6.0780    -4.0760    81.2480 oh         1 T8U      -0.543100
     26 O20         -1.4070    -3.6770    82.6680 o          1 T8U      -0.531000
     27 O21         -2.8640    -0.0560    84.9610 o          1 T8U      -0.552000
     28 O24          4.5660    -2.2080    81.7810 o          1 T8U      -0.603100
     29 H1          -1.3320     1.1300    86.0530 h1         1 T8U       0.059700
     30 H2           0.2720     0.5120    86.4960 h1         1 T8U       0.059700
     31 H3           0.0910     1.6150    85.1110 h1         1 T8U       0.059700
     32 H4          -6.0790    -1.9800    84.2630 ha         1 T8U       0.119500
     33 H5           5.4560    -6.7660    81.3830 hc         1 T8U       0.080700
     34 H6           6.9820    -6.2190    82.0580 hc         1 T8U       0.080700
     35 H7           5.7260    -7.9300    83.5070 hc         1 T8U       0.057700
     36 H8           6.1160    -6.4360    84.3490 hc         1 T8U       0.057700
     37 H9           3.7280    -7.0470    84.7810 hc         1 T8U       0.073200
     38 H10          3.4300    -7.0920    83.0410 hc         1 T8U       0.073200
     39 H13          3.8420    -0.8490    84.0840 ha         1 T8U       0.126000
     40 H14          1.9490     0.3160    85.0780 ha         1 T8U       0.128000
     41 H15          0.8400    -4.8810    82.4600 hc         1 T8U       0.060367
     42 H16          0.4670    -3.7870    81.1490 hc         1 T8U       0.060367
     43 H17          2.1410    -4.2600    81.4390 hc         1 T8U       0.060367
     44 H18         -7.2470    -3.1650    86.1100 ha         1 T8U       0.132000
     45 H19         -3.5870    -5.1030    87.1790 ha         1 T8U       0.132000
     46 H20         -2.4210    -3.9390    85.3300 ha         1 T8U       0.119500
     47 H21         -4.0530    -1.2890    83.2370 h1         1 T8U       0.079700
     48 H22         -3.4910    -2.8470    82.6250 h1         1 T8U       0.079700
     49 H23          5.6400    -3.1550    81.2670 ho         1 T8U       0.548000
     50 C22         -0.3740     0.8020    85.6690 c3         1 T8U       0.086300
     51 C32         -3.5050    -2.1920    83.4930 c3         1 T8U       0.150300
     52 O8           2.8920    -4.7100    84.6570 o          1 T8U      -0.535100
     53 F31         -6.1070    -4.8370    87.7340 f          1 T8U      -0.186000
@<TRIPOS>BOND
     1     1     3 ar  
     2     1    12 1   
     3     1    13 ar  
     4     2    14 ar  
     5     2    15 ar  
     6     2    23 1   
     7     3    15 ar  
     8     3    18 1   
     9     4    19 ar  
    10     4    20 ar  
    11     4    32 1   
    12     5    20 ar  
    13     5    21 ar  
    14     5    53 1   
    15     6     7 1   
    16     6    11 1   
    17     6    33 1   
    18     6    34 1   
    19     7     8 1   
    20     7    35 1   
    21     7    36 1   
    22     8     9 1   
    23     8    37 1   
    24     8    38 1   
    25     9    10 1   
    26     9    52 2   
    27    10    11 2   
    28    10    12 1   
    29    11    25 1   
    30    12    28 2   
    31    13    14 ar  
    32    13    39 1   
    33    14    40 1   
    34    15    16 1   
    35    16    24 1   
    36    16    26 2   
    37    17    23 1   
    38    17    24 1   
    39    17    27 2   
    40    18    41 1   
    41    18    42 1   
    42    18    43 1   
    43    19    22 ar  
    44    19    51 1   
    45    20    44 1   
    46    21    22 ar  
    47    21    45 1   
    48    22    46 1   
    49    23    50 1   
    50    24    51 1   
    51    25    49 1   
    52    29    50 1   
    53    30    50 1   
    54    31    50 1   
    55    47    51 1   
    56    48    51 1   
@<TRIPOS>SUBSTRUCTURE
     1 T8U         1 TEMP              0 ****  ****    0 ROOT
