@<TRIPOS>MOLECULE
T8U
   53    56     1     0     0
SMALL
No Charge or Current Charge


@<TRIPOS>ATOM
      1 C10          2.8220    -2.0930    83.1750 ca         1 T8U      -0.177600
      2 C13          0.4790    -0.8260    84.1310 ca         1 T8U       0.142600
      3 C15          1.5510    -2.6690    82.9020 ca         1 T8U       0.082700
      4 C26         -4.7600    -2.5160    85.5560 ca         1 T8U      -0.069500
      5 C28         -5.0640    -4.6440    86.6920 ca         1 T8U       0.165000
      6 C1           5.3710    -6.4120    82.3220 c6         1 T8U      -0.073200
      7 C2           5.0580    -6.9420    83.7390 c6         1 T8U      -0.063400
      8 C3           3.7280    -6.3460    84.2430 c6         1 T8U      -0.180400
      9 C4           3.7740    -4.8160    84.2330 c          1 T8U       0.605300
     10 C5           4.3800    -4.1780    83.0350 ce         1 T8U      -0.485400
     11 C6           5.1250    -4.9160    82.1840 c2         1 T8U       0.283900
     12 C9           4.1310    -2.7310    82.7890 c          1 T8U       0.638900
     13 C11          2.8970    -0.8510    83.8180 ca         1 T8U       0.001000
     14 C12          1.7400    -0.2120    84.2620 ca         1 T8U      -0.185000
     15 C14          0.3680    -2.0390    83.4170 ca         1 T8U      -0.215600
     16 C16         -1.0210    -2.6170    83.2310 c          1 T8U       0.594600
     17 C19         -1.9980    -0.5800    84.2270 c          1 T8U       0.619000
     18 C23          1.4720    -3.8920    81.9750 c3         1 T8U      -0.059800
     19 C25         -4.0420    -3.1600    84.5270 ca         1 T8U      -0.109300
     20 C27         -5.2690    -3.2580    86.6370 ca         1 T8U      -0.147000
     21 C29         -4.3570    -5.2960    85.6710 ca         1 T8U      -0.147000
     22 C30         -3.8470    -4.5560    84.5890 ca         1 T8U      -0.069500
     23 N17         -0.7070    -0.1340    84.5550 n          1 T8U      -0.306000
     24 N18         -2.1140    -1.8210    83.5960 n          1 T8U      -0.377400
     25 O7           5.7150    -4.3960    81.1040 oh         1 T8U      -0.543100
     26 O20         -1.2050    -3.7500    82.8080 o          1 T8U      -0.531000
     27 O21         -2.9870     0.0850    84.5040 o          1 T8U      -0.552000
     28 O24          4.9440    -2.0940    82.1300 o          1 T8U      -0.603100
     29 H1          -1.5200     1.2560    85.9870 h1         1 T8U       0.059700
     30 H2           0.1820     0.8510    86.2230 h1         1 T8U       0.059700
     31 H3          -0.2980     1.9280    84.8760 h1         1 T8U       0.059700
     32 H4          -4.9260    -1.4420    85.5200 ha         1 T8U       0.119500
     33 H5           4.7440    -6.9360    81.5880 hc         1 T8U       0.080700
     34 H6           6.4120    -6.6500    82.0610 hc         1 T8U       0.080700
     35 H7           5.0120    -8.0400    83.7330 hc         1 T8U       0.057700
     36 H8           5.8690    -6.6640    84.4270 hc         1 T8U       0.057700
     37 H9           3.4370    -6.7160    85.2350 hc         1 T8U       0.073200
     38 H10          2.9600    -6.6420    83.5160 hc         1 T8U       0.073200
     39 H13          3.8640    -0.3780    83.9840 ha         1 T8U       0.126000
     40 H14          1.8540     0.7590    84.7330 ha         1 T8U       0.128000
     41 H15          1.2720    -4.8100    82.5400 hc         1 T8U       0.060367
     42 H16          0.6860    -3.7700    81.2220 hc         1 T8U       0.060367
     43 H17          2.3810    -4.0490    81.3870 hc         1 T8U       0.060367
     44 H18         -5.8200    -2.7600    87.4300 ha         1 T8U       0.132000
     45 H19         -4.2040    -6.3710    85.7180 ha         1 T8U       0.132000
     46 H20         -3.3020    -5.0690    83.8000 ha         1 T8U       0.119500
     47 H21         -4.1740    -1.5300    83.1270 h1         1 T8U       0.079700
     48 H22         -3.4890    -2.9830    82.4530 h1         1 T8U       0.079700
     49 H23          5.5890    -3.4170    81.2030 ho         1 T8U       0.548000
     50 C22         -0.5820     1.0440    85.4590 c3         1 T8U       0.086300
     51 C32         -3.4860    -2.3550    83.3540 c3         1 T8U       0.150300
     52 O8           3.3390    -4.1700    85.1730 o          1 T8U      -0.535100
     53 F31         -5.5530    -5.3560    87.7300 f          1 T8U      -0.186000
@<TRIPOS>BOND
     1     1     3 ar  
     2     1    12 1   
     3     1    13 ar  
     4     2    14 ar  
     5     2    15 ar  
     6     2    23 1   
     7     3    15 ar  
     8     3    18 1   
     9     4    19 ar  
    10     4    20 ar  
    11     4    32 1   
    12     5    20 ar  
    13     5    21 ar  
    14     5    53 1   
    15     6     7 1   
    16     6    11 1   
    17     6    33 1   
    18     6    34 1   
    19     7     8 1   
    20     7    35 1   
    21     7    36 1   
    22     8     9 1   
    23     8    37 1   
    24     8    38 1   
    25     9    10 1   
    26     9    52 2   
    27    10    11 2   
    28    10    12 1   
    29    11    25 1   
    30    12    28 2   
    31    13    14 ar  
    32    13    39 1   
    33    14    40 1   
    34    15    16 1   
    35    16    24 1   
    36    16    26 2   
    37    17    23 1   
    38    17    24 1   
    39    17    27 2   
    40    18    41 1   
    41    18    42 1   
    42    18    43 1   
    43    19    22 ar  
    44    19    51 1   
    45    20    44 1   
    46    21    22 ar  
    47    21    45 1   
    48    22    46 1   
    49    23    50 1   
    50    24    51 1   
    51    25    49 1   
    52    29    50 1   
    53    30    50 1   
    54    31    50 1   
    55    47    51 1   
    56    48    51 1   
@<TRIPOS>SUBSTRUCTURE
     1 T8U         1 TEMP              0 ****  ****    0 ROOT
