@<TRIPOS>MOLECULE
T8V
   18    18     1     0     0
SMALL
No Charge or Current Charge


@<TRIPOS>ATOM
      1 N1          -2.3880    -0.0990     0.0230 nb         1 T8V      -0.644000
      2 C4          -1.4130    -2.3120     0.0730 ca         1 T8V      -0.142000
      3 C5          -2.5160    -1.4440     0.0340 ca         1 T8V       0.330900
      4 C6          -1.1370     0.4130     0.0520 ca         1 T8V       0.406000
      5 C            3.6810     0.8810     0.1780 c3         1 T8V      -0.180100
      6 O            2.9090    -1.3950     0.1810 o          1 T8V      -0.576100
      7 C1           2.6120    -0.2070     0.1600 c          1 T8V       0.610100
      8 C2           0.0410    -0.3740     0.0920 ca         1 T8V      -0.063000
      9 C3          -0.1130    -1.7790     0.1020 ca         1 T8V      -0.078000
     10 Cl1         -1.0490     2.1720     0.0360 cl         1 T8V      -0.180000
     11 H4          -1.5720    -3.3870     0.0800 ha         1 T8V       0.131000
     12 H5          -3.5320    -1.8370     0.0100 h4         1 T8V       0.029100
     13 H2           1.2520     1.2890     0.1070 hn         1 T8V       0.164000
     14 H            3.4890     1.5570     1.0190 hc         1 T8V       0.066367
     15 H6           4.6980     0.4730     0.2100 hc         1 T8V       0.066367
     16 H1           3.5350     1.5380    -0.6870 hc         1 T8V       0.066367
     17 H3           0.7350    -2.4570     0.1330 ha         1 T8V       0.146000
     18 N            1.3110     0.2780     0.1190 ns         1 T8V      -0.153000
@<TRIPOS>BOND
     1     1     3 ar  
     2     1     4 ar  
     3     2     3 ar  
     4     2     9 ar  
     5     2    11 1   
     6     3    12 1   
     7     4     8 ar  
     8     4    10 1   
     9     5     7 1   
    10     5    14 1   
    11     5    15 1   
    12     5    16 1   
    13     6     7 2   
    14     7    18 1   
    15     8     9 ar  
    16     8    18 1   
    17     9    17 1   
    18    13    18 1   
@<TRIPOS>SUBSTRUCTURE
     1 T8V         1 TEMP              0 ****  ****    0 ROOT
