@<TRIPOS>MOLECULE
T8V
   18    18     1     0     0
SMALL
bcc


@<TRIPOS>ATOM
      1 N1          -2.3170    -0.1510    -0.1360 nb         1 T8V      -0.644000
      2 C4          -1.3370    -2.2910     0.1690 ca         1 T8V      -0.225300
      3 C5          -2.4290    -1.4720    -0.0540 ca         1 T8V       0.396200
      4 C6          -1.1310     0.3820    -0.0150 ca         1 T8V       0.471300
      5 C            3.6120     0.8420     0.1310 c3         1 T8V      -0.180100
      6 O            2.6120    -1.1660    -0.6920 o          1 T8V      -0.576100
      7 C1           2.4700    -0.1060    -0.1150 c          1 T8V       0.677100
      8 C2           0.0490    -0.3340     0.2130 ca         1 T8V      -0.035700
      9 C3          -0.0850    -1.7160     0.3140 ca         1 T8V      -0.096000
     10 CL1         -1.0500     2.1140    -0.1430 cl         1 T8V      -0.180000
     11 H4          -1.4620    -3.3620     0.2440 ha         1 T8V       0.149000
     12 H5          -3.4250    -1.8820    -0.1690 h4         1 T8V       0.029100
     13 H2           1.2340     1.2560     0.7490 hn         1 T8V       0.330500
     14 H            3.3270     1.7430     0.6710 hc         1 T8V       0.066367
     15 H6           4.3870     0.3300     0.7010 hc         1 T8V       0.066367
     16 H1           4.0480     1.1330    -0.8250 hc         1 T8V       0.066367
     17 H3           0.7740    -2.3360     0.5170 ha         1 T8V       0.164000
     18 N            1.2660     0.3270     0.3600 ns         1 T8V      -0.479100
@<TRIPOS>BOND
     1     1     3 ar  
     2     1     4 ar  
     3     2     3 ar  
     4     2     9 ar  
     5     2    11 1   
     6     3    12 1   
     7     4     8 ar  
     8     4    10 1   
     9     5     7 1   
    10     5    14 1   
    11     5    15 1   
    12     5    16 1   
    13     6     7 2   
    14     7    18 1   
    15     8     9 ar  
    16     8    18 1   
    17     9    17 1   
    18    13    18 1   
@<TRIPOS>SUBSTRUCTURE
     1 T8V         1 TEMP              0 ****  ****    0 ROOT
