@<TRIPOS>MOLECULE
T8W
  240   256     1     0     0
SMALL
bcc


@<TRIPOS>ATOM
      1 O17          6.9420    68.2160     9.5440 o          1 T8W      -0.705367
      2 C8E         13.0430    71.8040    -3.4380 ca         1 T8W      -0.076800
      3 C1L         12.9210    66.4800     3.9710 ca         1 T8W      -0.130613
      4 C1M         12.5220    66.5260     2.6380 ca         1 T8W       0.145725
      5 O13         13.8060    67.8470    11.0130 o          1 T8W      -0.705367
      6 C8M         13.7800    67.6290    -0.6540 ca         1 T8W       0.145725
      7 O14         12.1100    69.4610    11.7850 o          1 T8W      -0.705367
      8 O15          8.5790    69.0550    11.1810 o          1 T8W      -0.705367
      9 O16          7.0570    67.2280    11.7980 o          1 T8W      -0.705367
     10 C1K         12.6470    67.5790     4.7840 ca         1 T8W      -0.089375
     11 O11         12.9600    73.0200    -8.5120 o          1 T8W      -0.705367
     12 C1C         12.0390    68.7240     4.2930 ca         1 T8W      -0.094675
     13 C1B         11.7150    68.7570     2.9400 ca         1 T8W      -0.089375
     14 C8J         11.8790    71.2410    -3.9610 ca         1 T8W      -0.156313
     15 O20         14.4140    51.6480     3.6140 o          1 T8W      -0.705367
     16 O19         12.8050    50.5740     5.1410 o          1 T8W      -0.705367
     17 O9          10.6950    72.1720    -8.0410 o          1 T8W      -0.705367
     18 C8B         14.5640    69.5060    -1.9270 ca         1 T8W      -0.089375
     19 C8C         13.5010    70.2860    -1.4810 ca         1 T8W      -0.094675
     20 C8K         12.5800    69.6980    -0.6290 ca         1 T8W      -0.089375
     21 C8L         12.6860    68.3730    -0.2120 ca         1 T8W      -0.130613
     22 C8A         14.7250    68.1890    -1.5260 ca         1 T8W      -0.130613
     23 O2          13.9740    66.3270    -0.3300 oh         1 T8W      -0.546225
     24 C8          15.9040    67.3930    -2.0440 c3         1 T8W       0.030950
     25 O1          12.6940    65.4780     1.7860 oh         1 T8W      -0.546225
     26 C4C         13.0380    55.4240     0.6150 ca         1 T8W      -0.094675
     27 C4          14.6130    58.3580     2.4460 c3         1 T8W       0.030950
     28 C6          16.2100    60.0350    -4.6550 c3         1 T8W       0.030950
     29 C2          13.6860    65.3150     4.5590 c3         1 T8W       0.030950
     30 C8I         11.6010    71.3060    -5.3140 ca         1 T8W      -0.042750
     31 C8H         12.4920    71.9320    -6.1800 ca         1 T8W      -0.238875
     32 C8G         13.6440    72.5150    -5.6740 ca         1 T8W      -0.042750
     33 C8F         13.9150    72.4450    -4.3110 ca         1 T8W      -0.156313
     34 C1D         11.7170    69.9320     5.1490 c3         1 T8W       0.023075
     35 C1E         12.0940    69.7980     6.5950 ca         1 T8W      -0.076800
     36 C1J         13.4020    70.0410     7.0090 ca         1 T8W      -0.156313
     37 C1I         13.7690    69.8910     8.3350 ca         1 T8W      -0.042750
     38 C4A         13.8990    57.5730     1.3660 ca         1 T8W      -0.130613
     39 C6A         15.5320    61.0220    -5.5810 ca         1 T8W      -0.130613
     40 C2A         12.8470    64.3090     5.3120 ca         1 T8W      -0.130613
     41 C1H         12.8250    69.5010     9.2760 ca         1 T8W      -0.238875
     42 C1G         11.5150    69.2640     8.8830 ca         1 T8W      -0.042750
     43 C1F         11.1590    69.4090     7.5490 ca         1 T8W      -0.156313
     44 C4B         13.7030    56.2070     1.5490 ca         1 T8W      -0.089375
     45 C6B         15.4510    60.7270    -6.9380 ca         1 T8W      -0.089375
     46 C2B         12.7410    64.4010     6.6950 ca         1 T8W      -0.089375
     47 C6C         14.7900    61.5520    -7.8350 ca         1 T8W      -0.094675
     48 C2C         12.0020    63.4860     7.4360 ca         1 T8W      -0.094675
     49 C4K         12.5930    56.0350    -0.5500 ca         1 T8W      -0.089375
     50 C6K         14.2200    62.7250    -7.3450 ca         1 T8W      -0.089375
     51 C2K         11.4160    62.4190     6.7700 ca         1 T8W      -0.089375
     52 C4L         12.7690    57.3940    -0.7800 ca         1 T8W      -0.130613
     53 C6L         14.2900    63.0700    -6.0010 ca         1 T8W      -0.130613
     54 C2L         11.5110    62.2740     5.3880 ca         1 T8W      -0.130613
     55 C1          11.5850    67.7800     0.6380 c3         1 T8W       0.030950
     56 C5          12.3110    57.9940    -2.0880 c3         1 T8W       0.030950
     57 C7          13.6580    64.3400    -5.4850 c3         1 T8W       0.030950
     58 C3          10.9390    61.0400     4.7260 c3         1 T8W       0.030950
     59 C1A         11.9450    67.6790     2.1000 ca         1 T8W      -0.130613
     60 C5A         13.3980    57.9400    -3.1390 ca         1 T8W      -0.130613
     61 C7A         14.6800    65.3820    -5.0750 ca         1 T8W      -0.130613
     62 C3A         11.9490    59.9120     4.6910 ca         1 T8W      -0.130613
     63 C5B         13.5010    56.8040    -3.9390 ca         1 T8W      -0.089375
     64 C7B         15.5360    65.8950    -6.0460 ca         1 T8W      -0.089375
     65 C3B         11.9880    59.0150     5.7570 ca         1 T8W      -0.089375
     66 O10         12.5400    70.5910    -8.4000 o          1 T8W      -0.705367
     67 O12         14.3840    70.2300    11.2280 o          1 T8W      -0.705367
     68 O18         15.1560    50.8520     5.8150 o          1 T8W      -0.705367
     69 O21          7.0030    53.4880     4.3040 o          1 T8W      -0.705367
     70 O22          8.7850    52.8320     5.8680 o          1 T8W      -0.705367
     71 O23          7.8120    51.1570     4.3510 o          1 T8W      -0.705367
     72 O24         16.5850    57.8610   -11.4690 o          1 T8W      -0.705367
     73 O25         14.8390    56.3390   -12.3160 o          1 T8W      -0.705367
     74 O26         17.1140    55.4970   -11.8780 o          1 T8W      -0.705367
     75 O27          9.8910    57.2310   -11.8690 o          1 T8W      -0.705367
     76 O28          9.0470    57.4650    -9.5630 o          1 T8W      -0.705367
     77 O29         10.8430    55.8620   -10.0590 o          1 T8W      -0.705367
     78 O30         16.7960    73.7740    -5.3810 o          1 T8W      -0.705367
     79 O31         16.0410    73.9010    -7.7190 o          1 T8W      -0.705367
     80 O32         18.4440    73.9970    -7.1900 o          1 T8W      -0.705367
     81 S1          12.1460    71.9350    -7.9360 s6         1 T8W       1.264600
     82 S2          13.3220    69.2390    10.9780 s6         1 T8W       1.264600
     83 S3           7.7860    67.9030    10.7110 s6         1 T8W       1.264600
     84 S4          14.0360    51.3720     5.0120 s6         1 T8W       1.264600
     85 S5           8.1320    52.5790     4.5700 s6         1 T8W       1.264600
     86 S6          16.0740    56.4800   -11.5250 s6         1 T8W       1.264600
     87 S7          10.1910    57.1340   -10.4300 s6         1 T8W       1.264600
     88 S8          17.1160    73.4990    -6.7940 s6         1 T8W       1.264600
     89 C5C         14.4780    56.6650    -4.9130 ca         1 T8W      -0.094675
     90 C7C         16.4840    66.8660    -5.7610 ca         1 T8W      -0.094675
     91 C3C         12.8800    57.9560     5.8030 ca         1 T8W      -0.094675
     92 C5K         15.3600    57.7250    -5.0960 ca         1 T8W      -0.089375
     93 C7K         16.5640    67.3210    -4.4510 ca         1 T8W      -0.089375
     94 C3K         13.7440    57.7910     4.7250 ca         1 T8W      -0.089375
     95 C5L         15.2900    58.8820    -4.3340 ca         1 T8W      -0.130613
     96 C7L         15.7350    66.8430    -3.4460 ca         1 T8W      -0.130613
     97 C3L         13.7260    58.6440     3.6320 ca         1 T8W      -0.130613
     98 C5M         14.3100    58.9770    -3.3380 ca         1 T8W       0.145725
     99 C7M         14.7790    65.8600    -3.7660 ca         1 T8W       0.145725
    100 C3M         12.8340    59.7190     3.6270 ca         1 T8W       0.145725
    101 C4M         13.4010    58.1620     0.1990 ca         1 T8W       0.145725
    102 C6M         14.9360    62.1970    -5.1140 ca         1 T8W       0.145725
    103 C2M         12.1870    63.2570     4.6760 ca         1 T8W       0.145725
    104 C4D         12.7700    53.9720     0.8780 c3         1 T8W       0.023075
    105 C6D         14.6430    61.1370    -9.2700 c3         1 T8W       0.023075
    106 C4E         11.5590    53.6770     1.7310 ca         1 T8W      -0.076800
    107 C6E         13.4740    60.2120    -9.5350 ca         1 T8W      -0.076800
    108 C2E         10.8340    64.7570     9.3030 ca         1 T8W      -0.076800
    109 C4J         10.7520    54.6620     2.2910 ca         1 T8W      -0.156313
    110 C6J         12.6720    59.7000    -8.5200 ca         1 T8W      -0.156313
    111 C2J         10.9820    65.4160    10.5230 ca         1 T8W      -0.156313
    112 C4I          9.6840    54.3250     3.1110 ca         1 T8W      -0.042750
    113 C6I         11.6520    58.8010    -8.8000 ca         1 T8W      -0.042750
    114 C2I         10.0690    66.3680    10.9430 ca         1 T8W      -0.042750
    115 C4H          9.4030    52.9910     3.3810 ca         1 T8W      -0.238875
    116 C6H         11.4190    58.3930   -10.1040 ca         1 T8W      -0.238875
    117 C2H          8.9830    66.6960    10.1390 ca         1 T8W      -0.238875
    118 C4G         10.1830    51.9990     2.8050 ca         1 T8W      -0.042750
    119 C6G         12.2030    58.9040   -11.1320 ca         1 T8W      -0.042750
    120 C2G          8.8310    66.0660     8.9130 ca         1 T8W      -0.042750
    121 C4F         11.2460    52.3450     1.9900 ca         1 T8W      -0.156313
    122 C6F         13.2150    59.8060   -10.8450 ca         1 T8W      -0.156313
    123 C2F          9.7490    65.1050     8.5010 ca         1 T8W      -0.156313
    124 C5D         14.6050    55.3890    -5.7150 c3         1 T8W       0.023075
    125 C7D         17.3960    67.4090    -6.8370 c3         1 T8W       0.023075
    126 C3D         12.9210    57.0180     6.9900 c3         1 T8W       0.023075
    127 C5E         14.9380    55.6150    -7.1650 ca         1 T8W      -0.076800
    128 C7E         17.3730    68.9150    -6.8950 ca         1 T8W      -0.076800
    129 C3E         13.1570    55.5870     6.5910 ca         1 T8W      -0.076800
    130 C5J         16.2560    55.5090    -7.6030 ca         1 T8W      -0.156313
    131 C7J         16.2810    69.5740    -7.4550 ca         1 T8W      -0.156313
    132 C3J         12.1240    54.7930     6.0950 ca         1 T8W      -0.156313
    133 C5I         16.5950    55.7550    -8.9240 ca         1 T8W      -0.042750
    134 C7I         16.2090    70.9590    -7.4680 ca         1 T8W      -0.042750
    135 C3I         12.3680    53.5010     5.6520 ca         1 T8W      -0.042750
    136 C5H         15.6080    56.1010    -9.8380 ca         1 T8W      -0.238875
    137 C7H         17.2300    71.7120    -6.9040 ca         1 T8W      -0.238875
    138 C3H         13.6600    52.9850     5.6970 ca         1 T8W      -0.238875
    139 C5G         14.2870    56.1940    -9.4220 ca         1 T8W      -0.042750
    140 C7G         18.3320    71.0700    -6.3520 ca         1 T8W      -0.042750
    141 C3G         14.6910    53.7570     6.2120 ca         1 T8W      -0.042750
    142 C5F         13.9600    55.9570    -8.0940 ca         1 T8W      -0.156313
    143 C7F         18.4020    69.6840    -6.3550 ca         1 T8W      -0.156313
    144 C3F         14.4350    55.0430     6.6600 ca         1 T8W      -0.156313
    145 H1          14.2400    72.2820    -1.7370 hc         1 T8W       0.043450
    146 H2          12.5300    72.1880    -1.3960 hc         1 T8W       0.043450
    147 H3          12.9520    67.5330     5.8230 ha         1 T8W       0.134063
    148 H4          11.2640    69.6510     2.5230 ha         1 T8W       0.134063
    149 H5          11.1800    70.7420    -3.2990 ha         1 T8W       0.118813
    150 H6          15.2920    69.9310    -2.6070 ha         1 T8W       0.134063
    151 H7          11.7310    70.2770    -0.2830 ha         1 T8W       0.134063
    152 H8          13.4020    65.9890     0.3910 ho         1 T8W       0.454500
    153 H9          16.1650    66.5910    -1.3510 hc         1 T8W       0.051575
    154 H10         16.7740    68.0510    -2.0580 hc         1 T8W       0.051575
    155 H11         12.8130    64.6370     2.2600 ho         1 T8W       0.454500
    156 H12         15.4570    57.7570     2.7880 hc         1 T8W       0.051575
    157 H13         15.0520    59.2760     2.0510 hc         1 T8W       0.051575
    158 H14         17.0950    59.6410    -5.1570 hc         1 T8W       0.051575
    159 H15         16.5760    60.5200    -3.7490 hc         1 T8W       0.051575
    160 H16         14.2920    64.8130     3.8010 hc         1 T8W       0.051575
    161 H17         14.4080    65.7260     5.2660 hc         1 T8W       0.051575
    162 H18         10.6910    70.8590    -5.6950 ha         1 T8W       0.148500
    163 H19         14.3380    73.0260    -6.3250 ha         1 T8W       0.148500
    164 H20         14.8260    72.8930    -3.9330 ha         1 T8W       0.118813
    165 H21         12.2180    70.8050     4.7200 hc         1 T8W       0.043450
    166 H22         10.6460    70.1350     5.0720 hc         1 T8W       0.043450
    167 H23         14.1430    70.3520     6.2810 ha         1 T8W       0.118813
    168 H24         14.7900    70.0930     8.6330 ha         1 T8W       0.148500
    169 H25         10.7600    68.9950     9.6100 ha         1 T8W       0.148500
    170 H26         10.1340    69.2220     7.2500 ha         1 T8W       0.118813
    171 H27         14.0720    55.7410     2.4590 ha         1 T8W       0.134063
    172 H28         15.9040    59.8070    -7.3000 ha         1 T8W       0.134063
    173 H29         13.2360    65.2220     7.2050 ha         1 T8W       0.134063
    174 H30         12.0750    55.4430    -1.2970 ha         1 T8W       0.134063
    175 H31         13.7010    63.3900    -8.0280 ha         1 T8W       0.134063
    176 H32         10.8650    61.6750     7.3360 ha         1 T8W       0.134063
    177 H33         10.7130    68.4280     0.5460 hc         1 T8W       0.051575
    178 H34         11.2770    66.8100     0.2430 hc         1 T8W       0.051575
    179 H35         11.9360    59.0100    -1.9470 hc         1 T8W       0.051575
    180 H36         11.4630    57.4120    -2.4520 hc         1 T8W       0.051575
    181 H37         13.0330    64.7630    -6.2760 hc         1 T8W       0.051575
    182 H38         12.9890    64.1120    -4.6560 hc         1 T8W       0.051575
    183 H39         10.5450    61.2450     3.7290 hc         1 T8W       0.051575
    184 H40         10.0810    60.7080     5.3130 hc         1 T8W       0.051575
    185 H41         12.7830    56.0030    -3.7890 ha         1 T8W       0.134063
    186 H42         15.4490    65.5200    -7.0610 ha         1 T8W       0.134063
    187 H43         11.2890    59.1560     6.5740 ha         1 T8W       0.134063
    188 H44         13.9080    60.0080    -1.7240 ho         1 T8W       0.454500
    189 H45         14.1330    65.5720    -1.9430 ho         1 T8W       0.454500
    190 H46         12.6120    61.4380     2.7200 ho         1 T8W       0.454500
    191 H47         13.4060    60.0150     0.7710 ho         1 T8W       0.454500
    192 H48         14.9150    61.7510    -3.2510 ho         1 T8W       0.454500
    193 H49         11.3530    63.1920     2.9270 ho         1 T8W       0.454500
    194 H50         16.1200    57.6630    -5.8660 ha         1 T8W       0.134063
    195 H51         11.4980    62.7320     9.3660 hc         1 T8W       0.043450
    196 H52         12.7880    63.9030     9.3820 hc         1 T8W       0.043450
    197 H53          9.6080    64.6260     7.5410 ha         1 T8W       0.118813
    198 H54          8.0040    66.3240     8.2660 ha         1 T8W       0.148500
    199 H55         11.8290    65.1800    11.1560 ha         1 T8W       0.118813
    200 H56         10.2250    66.8730    11.8890 ha         1 T8W       0.148500
    201 H57         13.7150    57.3340     7.6720 hc         1 T8W       0.043450
    202 H58         11.9840    57.1020     7.5460 hc         1 T8W       0.043450
    203 H59         15.2470    55.6360     7.0650 ha         1 T8W       0.118813
    204 H60         15.6960    53.3620     6.2720 ha         1 T8W       0.148500
    205 H61         11.5460    52.9060     5.2760 ha         1 T8W       0.148500
    206 H62         11.1140    55.1840     6.0530 ha         1 T8W       0.118813
    207 H63         14.4430    56.9630     4.7190 ha         1 T8W       0.134063
    208 H64         12.6560    53.4440    -0.0730 hc         1 T8W       0.043450
    209 H65         13.6340    53.5160     1.3710 hc         1 T8W       0.043450
    210 H66         11.8530    51.5610     1.5540 ha         1 T8W       0.118813
    211 H67          9.9710    50.9560     2.9950 ha         1 T8W       0.148500
    212 H68          9.0790    55.1130     3.5430 ha         1 T8W       0.148500
    213 H69         10.9510    55.7090     2.0980 ha         1 T8W       0.118813
    214 H70         13.6770    54.8190    -5.6270 hc         1 T8W       0.043450
    215 H71         15.3840    54.7640    -5.2680 hc         1 T8W       0.043450
    216 H72         12.9250    56.0390    -7.7810 ha         1 T8W       0.118813
    217 H73         13.5010    56.4310   -10.1270 ha         1 T8W       0.148500
    218 H74         17.6270    55.6600    -9.2370 ha         1 T8W       0.148500
    219 H75         17.0320    55.2290    -6.9000 ha         1 T8W       0.118813
    220 H76         15.5520    60.6260    -9.6020 hc         1 T8W       0.043450
    221 H77         14.5460    62.0190    -9.9090 hc         1 T8W       0.043450
    222 H78         13.8270    60.1900   -11.6520 ha         1 T8W       0.118813
    223 H79         12.0320    58.5990   -12.1550 ha         1 T8W       0.148500
    224 H80         12.8430    59.9940    -7.4930 ha         1 T8W       0.118813
    225 H81         11.0490    58.4160    -7.9870 ha         1 T8W       0.148500
    226 H82         19.1440    71.6430    -5.9230 ha         1 T8W       0.148500
    227 H83         15.3510    71.4420    -7.9190 ha         1 T8W       0.148500
    228 H84         15.4660    69.0010    -7.8810 ha         1 T8W       0.118813
    229 H85         19.2690    69.1940    -5.9280 ha         1 T8W       0.118813
    230 H86         17.0870    67.0000    -7.8010 hc         1 T8W       0.043450
    231 H87         18.4200    67.0640    -6.6660 hc         1 T8W       0.043450
    232 H88         17.2950    68.0820    -4.1940 ha         1 T8W       0.134063
    233 C2D         11.8250    63.6750     8.9190 c3         1 T8W       0.023075
    234 O1A         14.2650    60.1330    -2.6240 oh         1 T8W      -0.546225
    235 C8D         13.3360    71.7110    -1.9590 c3         1 T8W       0.023075
    236 O1B         13.9190    65.3520    -2.8680 oh         1 T8W      -0.546225
    237 O1C         12.8430    60.5130     2.5220 oh         1 T8W      -0.546225
    238 O2A         13.5420    59.4990    -0.0450 oh         1 T8W      -0.546225
    239 O2B         14.9600    62.5470    -3.8100 oh         1 T8W      -0.546225
    240 O2C         12.2500    63.1720     3.2930 oh         1 T8W      -0.546225
@<TRIPOS>BOND
     1     1    83 1   
     2     2    14 ar  
     3     2    33 ar  
     4     2   235 1   
     5     3     4 ar  
     6     3    10 ar  
     7     3    29 1   
     8     4    25 1   
     9     4    59 ar  
    10     5    82 1   
    11     6    21 ar  
    12     6    22 ar  
    13     6    23 1   
    14     7    82 1   
    15     8    83 1   
    16     9    83 1   
    17    10    12 ar  
    18    10   147 1   
    19    11    81 1   
    20    12    13 ar  
    21    12    34 1   
    22    13    59 ar  
    23    13   148 1   
    24    14    30 ar  
    25    14   149 1   
    26    15    84 1   
    27    16    84 1   
    28    17    81 1   
    29    18    19 ar  
    30    18    22 ar  
    31    18   150 1   
    32    19    20 ar  
    33    19   235 1   
    34    20    21 ar  
    35    20   151 1   
    36    21    55 1   
    37    22    24 1   
    38    23   152 1   
    39    24    96 1   
    40    24   153 1   
    41    24   154 1   
    42    25   155 1   
    43    26    44 ar  
    44    26    49 ar  
    45    26   104 1   
    46    27    38 1   
    47    27    97 1   
    48    27   156 1   
    49    27   157 1   
    50    28    39 1   
    51    28    95 1   
    52    28   158 1   
    53    28   159 1   
    54    29    40 1   
    55    29   160 1   
    56    29   161 1   
    57    30    31 ar  
    58    30   162 1   
    59    31    32 ar  
    60    31    81 1   
    61    32    33 ar  
    62    32   163 1   
    63    33   164 1   
    64    34    35 1   
    65    34   165 1   
    66    34   166 1   
    67    35    36 ar  
    68    35    43 ar  
    69    36    37 ar  
    70    36   167 1   
    71    37    41 ar  
    72    37   168 1   
    73    38    44 ar  
    74    38   101 ar  
    75    39    45 ar  
    76    39   102 ar  
    77    40    46 ar  
    78    40   103 ar  
    79    41    42 ar  
    80    41    82 1   
    81    42    43 ar  
    82    42   169 1   
    83    43   170 1   
    84    44   171 1   
    85    45    47 ar  
    86    45   172 1   
    87    46    48 ar  
    88    46   173 1   
    89    47    50 ar  
    90    47   105 1   
    91    48    51 ar  
    92    48   233 1   
    93    49    52 ar  
    94    49   174 1   
    95    50    53 ar  
    96    50   175 1   
    97    51    54 ar  
    98    51   176 1   
    99    52    56 1   
   100    52   101 ar  
   101    53    57 1   
   102    53   102 ar  
   103    54    58 1   
   104    54   103 ar  
   105    55    59 1   
   106    55   177 1   
   107    55   178 1   
   108    56    60 1   
   109    56   179 1   
   110    56   180 1   
   111    57    61 1   
   112    57   181 1   
   113    57   182 1   
   114    58    62 1   
   115    58   183 1   
   116    58   184 1   
   117    60    63 ar  
   118    60    98 ar  
   119    61    64 ar  
   120    61    99 ar  
   121    62    65 ar  
   122    62   100 ar  
   123    63    89 ar  
   124    63   185 1   
   125    64    90 ar  
   126    64   186 1   
   127    65    91 ar  
   128    65   187 1   
   129    66    81 1   
   130    67    82 1   
   131    68    84 1   
   132    69    85 1   
   133    70    85 1   
   134    71    85 1   
   135    72    86 1   
   136    73    86 1   
   137    74    86 1   
   138    75    87 1   
   139    76    87 1   
   140    77    87 1   
   141    78    88 1   
   142    79    88 1   
   143    80    88 1   
   144    83   117 1   
   145    84   138 1   
   146    85   115 1   
   147    86   136 1   
   148    87   116 1   
   149    88   137 1   
   150    89    92 ar  
   151    89   124 1   
   152    90    93 ar  
   153    90   125 1   
   154    91    94 ar  
   155    91   126 1   
   156    92    95 ar  
   157    92   194 1   
   158    93    96 ar  
   159    93   232 1   
   160    94    97 ar  
   161    94   207 1   
   162    95    98 ar  
   163    96    99 ar  
   164    97   100 ar  
   165    98   234 1   
   166    99   236 1   
   167   100   237 1   
   168   101   238 1   
   169   102   239 1   
   170   103   240 1   
   171   104   106 1   
   172   104   208 1   
   173   104   209 1   
   174   105   107 1   
   175   105   220 1   
   176   105   221 1   
   177   106   109 ar  
   178   106   121 ar  
   179   107   110 ar  
   180   107   122 ar  
   181   108   111 ar  
   182   108   123 ar  
   183   108   233 1   
   184   109   112 ar  
   185   109   213 1   
   186   110   113 ar  
   187   110   224 1   
   188   111   114 ar  
   189   111   199 1   
   190   112   115 ar  
   191   112   212 1   
   192   113   116 ar  
   193   113   225 1   
   194   114   117 ar  
   195   114   200 1   
   196   115   118 ar  
   197   116   119 ar  
   198   117   120 ar  
   199   118   121 ar  
   200   118   211 1   
   201   119   122 ar  
   202   119   223 1   
   203   120   123 ar  
   204   120   198 1   
   205   121   210 1   
   206   122   222 1   
   207   123   197 1   
   208   124   127 1   
   209   124   214 1   
   210   124   215 1   
   211   125   128 1   
   212   125   230 1   
   213   125   231 1   
   214   126   129 1   
   215   126   201 1   
   216   126   202 1   
   217   127   130 ar  
   218   127   142 ar  
   219   128   131 ar  
   220   128   143 ar  
   221   129   132 ar  
   222   129   144 ar  
   223   130   133 ar  
   224   130   219 1   
   225   131   134 ar  
   226   131   228 1   
   227   132   135 ar  
   228   132   206 1   
   229   133   136 ar  
   230   133   218 1   
   231   134   137 ar  
   232   134   227 1   
   233   135   138 ar  
   234   135   205 1   
   235   136   139 ar  
   236   137   140 ar  
   237   138   141 ar  
   238   139   142 ar  
   239   139   217 1   
   240   140   143 ar  
   241   140   226 1   
   242   141   144 ar  
   243   141   204 1   
   244   142   216 1   
   245   143   229 1   
   246   144   203 1   
   247   145   235 1   
   248   146   235 1   
   249   188   234 1   
   250   189   236 1   
   251   190   237 1   
   252   191   238 1   
   253   192   239 1   
   254   193   240 1   
   255   195   233 1   
   256   196   233 1   
@<TRIPOS>SUBSTRUCTURE
     1 T8W         1 TEMP              0 ****  ****    0 ROOT
