@<TRIPOS>MOLECULE
T8W
  240   256     1     0     0
SMALL
No Charge or Current Charge


@<TRIPOS>ATOM
      1 O17          8.2460    67.7950    10.6050 o          1 T8W      -0.705367
      2 C8E         11.3540    71.8750    -3.0200 ca         1 T8W      -0.076800
      3 C1L         13.3800    66.1510     3.6680 ca         1 T8W      -0.130613
      4 C1M         12.7980    66.3170     2.3920 ca         1 T8W       0.145725
      5 O13         18.8300    68.9330     7.8640 o          1 T8W      -0.705367
      6 C8M         13.6060    67.8410    -0.9300 ca         1 T8W       0.145725
      7 O14         17.8620    70.5900     9.4490 o          1 T8W      -0.705367
      8 O15         10.3010    69.2060    10.4240 o          1 T8W      -0.705367
      9 O16          9.8740    67.8760    12.4860 o          1 T8W      -0.705367
     10 C1K         13.3600    67.2260     4.5760 ca         1 T8W      -0.071375
     11 O11          8.1060    72.5630    -6.9940 o          1 T8W      -0.705367
     12 C1C         12.7940    68.4630     4.2170 ca         1 T8W      -0.094675
     13 C1B         12.2350    68.6210     2.9350 ca         1 T8W      -0.071375
     14 C8J         10.1010    72.3180    -2.5570 ca         1 T8W      -0.138313
     15 O20         14.8400    51.7680     6.9110 o          1 T8W      -0.705367
     16 O19         12.8220    50.4870     7.6080 o          1 T8W      -0.705367
     17 O9           6.5530    72.3390    -5.0520 o          1 T8W      -0.705367
     18 C8B         14.0540    69.8310    -2.2590 ca         1 T8W      -0.071375
     19 C8C         12.9530    70.4780    -1.6750 ca         1 T8W      -0.094675
     20 C8K         12.1770    69.7990    -0.7190 ca         1 T8W      -0.071375
     21 C8L         12.4880    68.4770    -0.3430 ca         1 T8W      -0.130613
     22 C8A         14.3900    68.5150    -1.8920 ca         1 T8W      -0.130613
     23 O2          13.9260    66.5580    -0.5920 oh         1 T8W      -0.585225
     24 C8          15.5860    67.8480    -2.5740 c3         1 T8W       0.030950
     25 O1          12.7780    65.2740     1.5160 oh         1 T8W      -0.585225
     26 C4C         12.3640    54.9040     0.4450 ca         1 T8W      -0.094675
     27 C4          13.6320    57.5950     2.8590 c3         1 T8W       0.030950
     28 C6          15.9710    59.9130    -3.8810 c3         1 T8W       0.030950
     29 C2          14.0680    64.8500     4.0860 c3         1 T8W       0.030950
     30 C8I          8.9760    72.2880    -3.4000 ca         1 T8W      -0.024750
     31 C8H          9.0890    71.8120    -4.7250 ca         1 T8W      -0.238875
     32 C8G         10.3460    71.3670    -5.1850 ca         1 T8W      -0.024750
     33 C8F         11.4680    71.3990    -4.3390 ca         1 T8W      -0.138313
     34 C1D         12.7780    69.6210     5.2120 c3         1 T8W       0.023075
     35 C1E         14.1170    69.7970     5.9210 ca         1 T8W      -0.076800
     36 C1J         15.2320    70.2840     5.2150 ca         1 T8W      -0.138313
     37 C1I         16.4750    70.4310     5.8570 ca         1 T8W      -0.024750
     38 C4A         13.0520    56.9450     1.6040 ca         1 T8W      -0.130613
     39 C6A         15.7500    61.0100    -4.9180 ca         1 T8W      -0.130613
     40 C2A         13.1710    63.9590     4.9430 ca         1 T8W      -0.130613
     41 C1H         16.6190    70.0960     7.2210 ca         1 T8W      -0.238875
     42 C1G         15.5000    69.6010     7.9250 ca         1 T8W      -0.024750
     43 C1F         14.2600    69.4550     7.2790 ca         1 T8W      -0.138313
     44 C4B         12.8950    55.5450     1.5770 ca         1 T8W      -0.071375
     45 C6B         16.5340    61.0030    -6.0870 ca         1 T8W      -0.071375
     46 C2B         13.3250    63.9850     6.3420 ca         1 T8W      -0.071375
     47 C6C         16.3640    61.9920    -7.0680 ca         1 T8W      -0.094675
     48 C2C         12.5430    63.1590     7.1670 ca         1 T8W      -0.094675
     49 C4K         11.9870    55.6700    -0.6710 ca         1 T8W      -0.071375
     50 C6K         15.4070    63.0020    -6.8740 ca         1 T8W      -0.071375
     51 C2K         11.6090    62.2870     6.5840 ca         1 T8W      -0.071375
     52 C4L         12.1290    57.0700    -0.6630 ca         1 T8W      -0.130613
     53 C6L         14.6120    63.0360    -5.7110 ca         1 T8W      -0.130613
     54 C2L         11.4350    62.2460     5.1880 ca         1 T8W      -0.130613
     55 C1          11.5750    67.7570     0.6490 c3         1 T8W       0.030950
     56 C5          11.6950    57.8600    -1.8970 c3         1 T8W       0.030950
     57 C7          13.5840    64.1670    -5.5670 c3         1 T8W       0.030950
     58 C3          10.4420    61.2360     4.6100 c3         1 T8W       0.030950
     59 C1A         12.2290    67.5530     2.0170 ca         1 T8W      -0.130613
     60 C5A         12.8020    57.9070    -2.9480 ca         1 T8W      -0.130613
     61 C7A         14.2500    65.5350    -5.3720 ca         1 T8W      -0.130613
     62 C3A         11.0060    59.8130     4.6270 ca         1 T8W      -0.130613
     63 C5B         12.7830    56.9680    -3.9980 ca         1 T8W      -0.071375
     64 C7B         14.5480    66.3170    -6.5060 ca         1 T8W      -0.071375
     65 C3B         10.4320    58.8670     5.5000 ca         1 T8W      -0.071375
     66 O10          7.5250    70.3070    -6.1270 o          1 T8W      -0.705367
     67 O12         18.8910    71.3590     7.3050 o          1 T8W      -0.705367
     68 O18         14.0760    51.8580     9.2800 o          1 T8W      -0.705367
     69 O21          6.4620    52.3030     3.7250 o          1 T8W      -0.705367
     70 O22          6.6070    50.2880     2.2710 o          1 T8W      -0.705367
     71 O23          5.6350    52.3950     1.3690 o          1 T8W      -0.705367
     72 O24         20.1850    54.6220    -6.9430 o          1 T8W      -0.705367
     73 O25         19.2860    53.7190    -9.0810 o          1 T8W      -0.705367
     74 O26         19.2460    52.3170    -7.0130 o          1 T8W      -0.705367
     75 O27         13.0260    59.8240   -13.1030 o          1 T8W      -0.705367
     76 O28         13.9530    57.6470   -12.2980 o          1 T8W      -0.705367
     77 O29         15.2150    59.0060   -13.9610 o          1 T8W      -0.705367
     78 O30         14.7240    74.6310    -5.4650 o          1 T8W      -0.705367
     79 O31         13.8110    74.8210    -7.7720 o          1 T8W      -0.705367
     80 O32         16.2700    75.0160    -7.3790 o          1 T8W      -0.705367
     81 S1           7.6290    71.7510    -5.8640 s6         1 T8W       1.264600
     82 S2          18.2580    70.2720     8.0680 s6         1 T8W       1.264600
     83 S3           9.6240    68.0590    11.0480 s6         1 T8W       1.264600
     84 S4          13.7360    51.6100     7.8700 s6         1 T8W       1.264600
     85 S5           6.5090    51.7530     2.3620 s6         1 T8W       1.264600
     86 S6          19.2960    53.6600    -7.6110 s6         1 T8W       1.264600
     87 S7          14.2050    58.9690   -12.8920 s6         1 T8W       1.264600
     88 S8          14.9650    74.5220    -6.9110 s6         1 T8W       1.264600
     89 C5C         13.7710    56.9850    -5.0000 ca         1 T8W      -0.094675
     90 C7C         15.1780    67.5680    -6.3770 ca         1 T8W      -0.094675
     91 C3C         10.8840    57.5350     5.5260 ca         1 T8W      -0.094675
     92 C5K         14.7880    57.9550    -4.9450 ca         1 T8W      -0.071375
     93 C7K         15.5120    68.0410    -5.0940 ca         1 T8W      -0.071375
     94 C3K         11.9220    57.1480     4.6570 ca         1 T8W      -0.071375
     95 C5L         14.8340    58.8920    -3.8970 ca         1 T8W      -0.130613
     96 C7L         15.2070    67.2870    -3.9450 ca         1 T8W      -0.130613
     97 C3L         12.5190    58.0780     3.7880 ca         1 T8W      -0.130613
     98 C5M         13.8360    58.8680    -2.9000 ca         1 T8W       0.145725
     99 C7M         14.5700    66.0330    -4.0870 ca         1 T8W       0.145725
    100 C3M         12.0640    59.4140     3.7770 ca         1 T8W       0.145725
    101 C4M         12.6590    57.7070     0.4810 ca         1 T8W       0.145725
    102 C6M         14.7770    62.0210    -4.7340 ca         1 T8W       0.145725
    103 C2M         12.2050    63.1030     4.3700 ca         1 T8W       0.145725
    104 C4D         12.1820    53.3930     0.4340 c3         1 T8W       0.023075
    105 C6D         17.1960    61.9600    -8.3430 c3         1 T8W       0.023075
    106 C4E         10.7900    52.9970     0.9100 ca         1 T8W      -0.076800
    107 C6E         16.4680    61.2240    -9.4600 ca         1 T8W      -0.076800
    108 C2E         11.9590    64.4030     9.2700 ca         1 T8W      -0.076800
    109 C4J         10.5410    52.7640     2.2750 ca         1 T8W      -0.138313
    110 C6J         16.5350    59.8220    -9.5520 ca         1 T8W      -0.138313
    111 C2J         12.5910    65.6530     9.4050 ca         1 T8W      -0.138313
    112 C4I          9.2560    52.3960     2.7130 ca         1 T8W      -0.024750
    113 C6I         15.8560    59.1400   -10.5790 ca         1 T8W      -0.024750
    114 C2I         11.8940    66.7520     9.9350 ca         1 T8W      -0.024750
    115 C4H          8.1980    52.2610     1.7900 ca         1 T8W      -0.238875
    116 C6H         15.0930    59.8550   -11.5270 ca         1 T8W      -0.238875
    117 C2H         10.5470    66.6180    10.3360 ca         1 T8W      -0.238875
    118 C4G          8.4500    52.4950     0.4220 ca         1 T8W      -0.024750
    119 C6G         15.0300    61.2610   -11.4350 ca         1 T8W      -0.024750
    120 C2G          9.9170    65.3620    10.2050 ca         1 T8W      -0.024750
    121 C4F          9.7360    52.8620    -0.0130 ca         1 T8W      -0.138313
    122 C6F         15.7100    61.9390   -10.4070 ca         1 T8W      -0.138313
    123 C2F         10.6180    64.2650     9.6730 ca         1 T8W      -0.138313
    124 C5D         13.7180    55.9800    -6.1490 c3         1 T8W       0.023075
    125 C7D         15.5230    68.3750    -7.6280 c3         1 T8W       0.023075
    126 C3D         10.2110    56.5330     6.4660 c3         1 T8W       0.023075
    127 C5E         15.0870    55.4120    -6.5090 ca         1 T8W      -0.076800
    128 C7E         15.3870    69.8830    -7.4380 ca         1 T8W      -0.076800
    129 C3E         11.0760    55.3230     6.8110 ca         1 T8W      -0.076800
    130 C5J         15.6960    54.4500    -5.6830 ca         1 T8W      -0.138313
    131 C7J         14.1160    70.4870    -7.4270 ca         1 T8W      -0.138313
    132 C3J         10.8900    54.0990     6.1420 ca         1 T8W      -0.138313
    133 C5I         16.9580    53.9220    -6.0120 ca         1 T8W      -0.024750
    134 C7I         13.9900    71.8790    -7.2640 ca         1 T8W      -0.024750
    135 C3I         11.6880    52.9850     6.4570 ca         1 T8W      -0.024750
    136 C5H         17.6290    54.3480    -7.1780 ca         1 T8W      -0.238875
    137 C7H         15.1360    72.6880    -7.1140 ca         1 T8W      -0.238875
    138 C3H         12.6830    53.0780     7.4530 ca         1 T8W      -0.238875
    139 C5G         17.0220    55.3230    -7.9990 ca         1 T8W      -0.024750
    140 C7G         16.4080    72.0770    -7.1080 ca         1 T8W      -0.024750
    141 C3G         12.8770    54.3100     8.1130 ca         1 T8W      -0.024750
    142 C5F         15.7600    55.8470    -7.6670 ca         1 T8W      -0.138313
    143 C7F         16.5310    70.6860    -7.2720 ca         1 T8W      -0.138313
    144 C3F         12.0770    55.4230     7.7940 ca         1 T8W      -0.138313
    145 H1          13.4120    72.3730    -2.6160 hc         1 T8W       0.043450
    146 H2          12.3760    72.5040    -1.2170 hc         1 T8W       0.043450
    147 H3          13.7960    67.0990     5.5640 ha         1 T8W       0.116063
    148 H4          11.7930    69.5740     2.6520 ha         1 T8W       0.116063
    149 H5           9.9940    72.6830    -1.5380 ha         1 T8W       0.100813
    150 H6          14.6460    70.3490    -3.0110 ha         1 T8W       0.116063
    151 H7          11.3140    70.2990    -0.2840 ha         1 T8W       0.116063
    152 H8          13.3900    66.2910     0.2020 ho         1 T8W       0.493500
    153 H9          16.0260    67.0650    -1.9460 hc         1 T8W       0.051575
    154 H10         16.3920    68.5840    -2.6840 hc         1 T8W       0.051575
    155 H11         12.7490    64.4440     2.0550 ho         1 T8W       0.493500
    156 H12         14.2620    56.8730     3.3930 hc         1 T8W       0.051575
    157 H13         14.3210    58.4060     2.5950 hc         1 T8W       0.051575
    158 H14         16.9170    59.3930    -4.0780 hc         1 T8W       0.051575
    159 H15         16.1120    60.3580    -2.8890 hc         1 T8W       0.051575
    160 H16         14.4370    64.2930     3.2170 hc         1 T8W       0.051575
    161 H17         14.9800    65.0950     4.6440 hc         1 T8W       0.051575
    162 H18          8.0200    72.6350    -3.0150 ha         1 T8W       0.130500
    163 H19         10.4510    70.9920    -6.2020 ha         1 T8W       0.130500
    164 H20         12.4280    71.0470    -4.7090 ha         1 T8W       0.100813
    165 H21         12.5190    70.5570     4.7010 hc         1 T8W       0.043450
    166 H22         11.9790    69.4550     5.9440 hc         1 T8W       0.043450
    167 H23         15.1390    70.5420     4.1630 ha         1 T8W       0.100813
    168 H24         17.3260    70.8020     5.2900 ha         1 T8W       0.130500
    169 H25         15.5910    69.3240     8.9740 ha         1 T8W       0.130500
    170 H26         13.4100    69.0680     7.8370 ha         1 T8W       0.100813
    171 H27         13.1820    54.9520     2.4430 ha         1 T8W       0.116063
    172 H28         17.2730    60.2200    -6.2400 ha         1 T8W       0.116063
    173 H29         14.0560    64.6520     6.7930 ha         1 T8W       0.116063
    174 H30         11.5750    55.1740    -1.5470 ha         1 T8W       0.116063
    175 H31         15.2770    63.7620    -7.6410 ha         1 T8W       0.116063
    176 H32         11.0150    61.6320     7.2190 ha         1 T8W       0.116063
    177 H33         10.6470    68.3260     0.7830 hc         1 T8W       0.051575
    178 H34         11.2390    66.8060     0.2180 hc         1 T8W       0.051575
    179 H35         11.3690    58.8730    -1.6330 hc         1 T8W       0.051575
    180 H36         10.7980    57.3970    -2.3250 hc         1 T8W       0.051575
    181 H37         12.9600    64.1910    -6.4690 hc         1 T8W       0.051575
    182 H38         12.8730    63.9700    -4.7570 hc         1 T8W       0.051575
    183 H39         10.1290    61.4930     3.5920 hc         1 T8W       0.051575
    184 H40          9.5140    61.2800     5.1940 hc         1 T8W       0.051575
    185 H41         11.9890    56.2260    -4.0410 ha         1 T8W       0.116063
    186 H42         14.2970    65.9460    -7.4970 ha         1 T8W       0.116063
    187 H43          9.6170    59.1640     6.1560 ha         1 T8W       0.116063
    188 H44         13.3710    59.4350    -1.1190 ho         1 T8W       0.493500
    189 H45         14.2740    65.8990    -2.1910 ho         1 T8W       0.493500
    190 H46         12.4140    61.2220     3.2120 ho         1 T8W       0.493500
    191 H47         12.8070    59.3640     1.4430 ho         1 T8W       0.493500
    192 H48         14.1350    61.1490    -3.1390 ho         1 T8W       0.493500
    193 H49         11.0580    63.0650     2.8370 ho         1 T8W       0.493500
    194 H50         15.5500    57.9840    -5.7200 ha         1 T8W       0.116063
    195 H51         12.3580    62.2840     9.1370 hc         1 T8W       0.043450
    196 H52         13.7750    63.2810     8.9340 hc         1 T8W       0.043450
    197 H53         10.1140    63.3070     9.5730 ha         1 T8W       0.100813
    198 H54          8.8820    65.2330    10.5160 ha         1 T8W       0.130500
    199 H55         13.6270    65.7760     9.0970 ha         1 T8W       0.100813
    200 H56         12.4040    67.7080    10.0350 ha         1 T8W       0.130500
    201 H57          9.9240    57.0390     7.3950 hc         1 T8W       0.043450
    202 H58          9.2680    56.1990     6.0150 hc         1 T8W       0.043450
    203 H59         12.2390    56.3650     8.3110 ha         1 T8W       0.100813
    204 H60         13.6480    54.4100     8.8750 ha         1 T8W       0.130500
    205 H61         11.5310    52.0480     5.9250 ha         1 T8W       0.130500
    206 H62         10.1280    54.0100     5.3720 ha         1 T8W       0.100813
    207 H63         12.2690    56.1190     4.6460 ha         1 T8W       0.116063
    208 H64         12.3570    53.0020    -0.5760 hc         1 T8W       0.043450
    209 H65         12.9430    52.9160     1.0640 hc         1 T8W       0.043450
    210 H66          9.9110    53.0410    -1.0710 ha         1 T8W       0.100813
    211 H67          7.6510    52.3890    -0.3100 ha         1 T8W       0.130500
    212 H68          9.0870    52.2110     3.7720 ha         1 T8W       0.130500
    213 H69         11.3440    52.8670     3.0010 ha         1 T8W       0.100813
    214 H70         13.2680    56.4610    -7.0260 hc         1 T8W       0.043450
    215 H71         13.0450    55.1520    -5.8940 hc         1 T8W       0.043450
    216 H72         15.3080    56.5970    -8.3120 ha         1 T8W       0.100813
    217 H73         17.5280    55.6770    -8.8950 ha         1 T8W       0.130500
    218 H74         17.4120    53.1820    -5.3560 ha         1 T8W       0.130500
    219 H75         15.1920    54.1110    -4.7820 ha         1 T8W       0.100813
    220 H76         18.1650    61.4820    -8.1500 hc         1 T8W       0.043450
    221 H77         17.4360    62.9830    -8.6580 hc         1 T8W       0.043450
    222 H78         15.6460    63.0220   -10.3500 ha         1 T8W       0.100813
    223 H79         14.4550    61.8340   -12.1600 ha         1 T8W       0.130500
    224 H80         17.1140    59.2550    -8.8270 ha         1 T8W       0.100813
    225 H81         15.9260    58.0560   -10.6350 ha         1 T8W       0.130500
    226 H82         17.3070    72.6770    -6.9780 ha         1 T8W       0.130500
    227 H83         12.9990    72.3280    -7.2590 ha         1 T8W       0.130500
    228 H84         13.2230    69.8780    -7.5460 ha         1 T8W       0.100813
    229 H85         17.5200    70.2340    -7.2690 ha         1 T8W       0.100813
    230 H86         14.8820    68.0640    -8.4620 hc         1 T8W       0.043450
    231 H87         16.5450    68.1270    -7.9410 hc         1 T8W       0.043450
    232 H88         16.0110    69.0010    -4.9860 ha         1 T8W       0.116063
    233 C2D         12.7100    63.2170     8.6790 c3         1 T8W       0.023075
    234 O1A         13.8680    59.7980    -1.9000 oh         1 T8W      -0.585225
    235 C8D         12.5710    71.8890    -2.1040 c3         1 T8W       0.023075
    236 O1B         14.2600    65.2980    -2.9800 oh         1 T8W      -0.585225
    237 O1C         12.6440    60.3070     2.9200 oh         1 T8W      -0.585225
    238 O2A         12.7870    59.0660     0.4950 oh         1 T8W      -0.585225
    239 O2B         13.9880    62.0030    -3.6180 oh         1 T8W      -0.585225
    240 O2C         12.0270    63.0890     3.0150 oh         1 T8W      -0.585225
@<TRIPOS>BOND
     1     1    83 1   
     2     2    14 ar  
     3     2    33 ar  
     4     2   235 1   
     5     3     4 ar  
     6     3    10 ar  
     7     3    29 1   
     8     4    25 1   
     9     4    59 ar  
    10     5    82 1   
    11     6    21 ar  
    12     6    22 ar  
    13     6    23 1   
    14     7    82 1   
    15     8    83 1   
    16     9    83 1   
    17    10    12 ar  
    18    10   147 1   
    19    11    81 1   
    20    12    13 ar  
    21    12    34 1   
    22    13    59 ar  
    23    13   148 1   
    24    14    30 ar  
    25    14   149 1   
    26    15    84 1   
    27    16    84 1   
    28    17    81 1   
    29    18    19 ar  
    30    18    22 ar  
    31    18   150 1   
    32    19    20 ar  
    33    19   235 1   
    34    20    21 ar  
    35    20   151 1   
    36    21    55 1   
    37    22    24 1   
    38    23   152 1   
    39    24    96 1   
    40    24   153 1   
    41    24   154 1   
    42    25   155 1   
    43    26    44 ar  
    44    26    49 ar  
    45    26   104 1   
    46    27    38 1   
    47    27    97 1   
    48    27   156 1   
    49    27   157 1   
    50    28    39 1   
    51    28    95 1   
    52    28   158 1   
    53    28   159 1   
    54    29    40 1   
    55    29   160 1   
    56    29   161 1   
    57    30    31 ar  
    58    30   162 1   
    59    31    32 ar  
    60    31    81 1   
    61    32    33 ar  
    62    32   163 1   
    63    33   164 1   
    64    34    35 1   
    65    34   165 1   
    66    34   166 1   
    67    35    36 ar  
    68    35    43 ar  
    69    36    37 ar  
    70    36   167 1   
    71    37    41 ar  
    72    37   168 1   
    73    38    44 ar  
    74    38   101 ar  
    75    39    45 ar  
    76    39   102 ar  
    77    40    46 ar  
    78    40   103 ar  
    79    41    42 ar  
    80    41    82 1   
    81    42    43 ar  
    82    42   169 1   
    83    43   170 1   
    84    44   171 1   
    85    45    47 ar  
    86    45   172 1   
    87    46    48 ar  
    88    46   173 1   
    89    47    50 ar  
    90    47   105 1   
    91    48    51 ar  
    92    48   233 1   
    93    49    52 ar  
    94    49   174 1   
    95    50    53 ar  
    96    50   175 1   
    97    51    54 ar  
    98    51   176 1   
    99    52    56 1   
   100    52   101 ar  
   101    53    57 1   
   102    53   102 ar  
   103    54    58 1   
   104    54   103 ar  
   105    55    59 1   
   106    55   177 1   
   107    55   178 1   
   108    56    60 1   
   109    56   179 1   
   110    56   180 1   
   111    57    61 1   
   112    57   181 1   
   113    57   182 1   
   114    58    62 1   
   115    58   183 1   
   116    58   184 1   
   117    60    63 ar  
   118    60    98 ar  
   119    61    64 ar  
   120    61    99 ar  
   121    62    65 ar  
   122    62   100 ar  
   123    63    89 ar  
   124    63   185 1   
   125    64    90 ar  
   126    64   186 1   
   127    65    91 ar  
   128    65   187 1   
   129    66    81 1   
   130    67    82 1   
   131    68    84 1   
   132    69    85 1   
   133    70    85 1   
   134    71    85 1   
   135    72    86 1   
   136    73    86 1   
   137    74    86 1   
   138    75    87 1   
   139    76    87 1   
   140    77    87 1   
   141    78    88 1   
   142    79    88 1   
   143    80    88 1   
   144    83   117 1   
   145    84   138 1   
   146    85   115 1   
   147    86   136 1   
   148    87   116 1   
   149    88   137 1   
   150    89    92 ar  
   151    89   124 1   
   152    90    93 ar  
   153    90   125 1   
   154    91    94 ar  
   155    91   126 1   
   156    92    95 ar  
   157    92   194 1   
   158    93    96 ar  
   159    93   232 1   
   160    94    97 ar  
   161    94   207 1   
   162    95    98 ar  
   163    96    99 ar  
   164    97   100 ar  
   165    98   234 1   
   166    99   236 1   
   167   100   237 1   
   168   101   238 1   
   169   102   239 1   
   170   103   240 1   
   171   104   106 1   
   172   104   208 1   
   173   104   209 1   
   174   105   107 1   
   175   105   220 1   
   176   105   221 1   
   177   106   109 ar  
   178   106   121 ar  
   179   107   110 ar  
   180   107   122 ar  
   181   108   111 ar  
   182   108   123 ar  
   183   108   233 1   
   184   109   112 ar  
   185   109   213 1   
   186   110   113 ar  
   187   110   224 1   
   188   111   114 ar  
   189   111   199 1   
   190   112   115 ar  
   191   112   212 1   
   192   113   116 ar  
   193   113   225 1   
   194   114   117 ar  
   195   114   200 1   
   196   115   118 ar  
   197   116   119 ar  
   198   117   120 ar  
   199   118   121 ar  
   200   118   211 1   
   201   119   122 ar  
   202   119   223 1   
   203   120   123 ar  
   204   120   198 1   
   205   121   210 1   
   206   122   222 1   
   207   123   197 1   
   208   124   127 1   
   209   124   214 1   
   210   124   215 1   
   211   125   128 1   
   212   125   230 1   
   213   125   231 1   
   214   126   129 1   
   215   126   201 1   
   216   126   202 1   
   217   127   130 ar  
   218   127   142 ar  
   219   128   131 ar  
   220   128   143 ar  
   221   129   132 ar  
   222   129   144 ar  
   223   130   133 ar  
   224   130   219 1   
   225   131   134 ar  
   226   131   228 1   
   227   132   135 ar  
   228   132   206 1   
   229   133   136 ar  
   230   133   218 1   
   231   134   137 ar  
   232   134   227 1   
   233   135   138 ar  
   234   135   205 1   
   235   136   139 ar  
   236   137   140 ar  
   237   138   141 ar  
   238   139   142 ar  
   239   139   217 1   
   240   140   143 ar  
   241   140   226 1   
   242   141   144 ar  
   243   141   204 1   
   244   142   216 1   
   245   143   229 1   
   246   144   203 1   
   247   145   235 1   
   248   146   235 1   
   249   188   234 1   
   250   189   236 1   
   251   190   237 1   
   252   191   238 1   
   253   192   239 1   
   254   193   240 1   
   255   195   233 1   
   256   196   233 1   
@<TRIPOS>SUBSTRUCTURE
     1 T8W         1 TEMP              0 ****  ****    0 ROOT
