@<TRIPOS>MOLECULE
T8X
  176   177     1     0     0
SMALL
abcg2


@<TRIPOS>ATOM
      1 C1           5.2000    -3.8920    -1.3390 c6         1 T8X       0.370300
      2 O1           5.5780    -3.8980     0.0020 os         1 T8X      -0.476000
      3 C2           3.8530    -3.1700    -1.4040 c6         1 T8X       0.144300
      4 O2           3.9340    -1.8930    -0.7870 os         1 T8X      -0.425100
      5 C3           2.8120    -3.9790    -0.6520 c6         1 T8X       0.167300
      6 O3           1.5540    -3.3450    -0.8440 os         1 T8X      -0.454100
      7 C4           2.7470    -5.3880    -1.2290 c6         1 T8X       0.135300
      8 O4           1.8410    -6.1290    -0.4530 oh         1 T8X      -0.690000
      9 C5           4.1440    -6.0270    -1.2250 c6         1 T8X       0.138300
     10 O5           5.0780    -5.1710    -1.8730 os         1 T8X      -0.457000
     11 C6           4.1310    -7.3310    -1.9950 c3         1 T8X       0.175600
     12 O6           5.4060    -7.9160    -1.9430 oh         1 T8X      -0.665000
     13 C7          11.2060    16.8060     0.6010 c3         1 T8X      -0.088100
     14 C8          11.0000    15.5770    -0.2750 c3         1 T8X      -0.075400
     15 C9          10.2000    14.4830     0.4210 c3         1 T8X      -0.075400
     16 C10          9.9890    13.2470    -0.4430 c3         1 T8X      -0.074400
     17 C11          9.1950    12.1500     0.2560 c3         1 T8X      -0.074400
     18 C12          8.9890    10.9130    -0.6080 c3         1 T8X      -0.074400
     19 C13          8.2000     9.8120     0.0910 c3         1 T8X      -0.074400
     20 C14          8.0020     8.5750    -0.7760 c3         1 T8X      -0.074400
     21 C17          6.2560     5.1150    -0.2660 c3         1 T8X      -0.074400
     22 C18          6.0920     3.8810    -1.1430 c3         1 T8X      -0.074400
     23 C19          5.3190     2.7540    -0.4700 c3         1 T8X      -0.076400
     24 C20          5.2010     1.5230    -1.3590 c3         1 T8X      -0.069400
     25 C22          4.3810    -0.8600    -1.5070 c          1 T8X       0.600100
     26 O7           4.6910    -0.9480    -2.6670 o          1 T8X      -0.492000
     27 C23        -18.2190     1.7660    -0.1170 c3         1 T8X      -0.074400
     28 C24        -16.9080     0.9990     0.0020 c3         1 T8X      -0.074400
     29 C25        -15.6780     1.8980     0.0020 c3         1 T8X      -0.073400
     30 C26        -14.3710     1.1240     0.1140 c3         1 T8X      -0.075400
     31 C27        -13.1340     2.0140     0.1100 c3         1 T8X      -0.073400
     32 C28        -11.8340     1.2280     0.2150 c3         1 T8X      -0.075400
     33 C29        -10.5870     2.1050     0.2000 c3         1 T8X      -0.073400
     34 C30         -9.2960     1.3020     0.2970 c3         1 T8X      -0.076400
     35 C32         -6.7660     1.3230     0.3470 c3         1 T8X      -0.073400
     36 C33         -5.4620     2.1190     0.4290 c3         1 T8X      -0.056700
     37 C34         -4.2470     1.1920     0.5540 c3         1 T8X      -0.071400
     38 C35         -4.2280     0.2420     1.7550 c3         1 T8X      -0.057700
     39 C36         -2.9490    -0.6000     1.7780 c3         1 T8X      -0.071400
     40 C37         -2.7430    -1.5570     0.5960 c3         1 T8X      -0.032500
     41 C38         -1.4030    -2.2080     0.7350 c2         1 T8X      -0.162200
     42 C40          0.7630    -3.1020     0.2000 c          1 T8X       0.602300
     43 O8           1.0560    -3.3810     1.3380 o          1 T8X      -0.461000
     44 O9           6.0560    -5.5250     2.0960 os         1 T8X      -0.567700
     45 O10          6.9550    -3.6360     3.9570 oh         1 T8X      -0.622000
     46 O11          7.3480    -1.0310     2.9150 oh         1 T8X      -0.727000
     47 O12          7.7600    -3.1350    -0.0500 os         1 T8X      -0.466000
     48 C41          6.9170    -4.1970     0.2760 c6         1 T8X       0.349300
     49 C42          7.0070    -4.5340     1.7650 c6         1 T8X       0.226300
     50 C43          6.7450    -3.2990     2.6120 c6         1 T8X       0.165300
     51 C44          7.6810    -2.1780     2.1650 c6         1 T8X       0.091300
     52 C45          7.5220    -1.9300     0.6640 c6         1 T8X       0.143300
     53 C46          8.4950    -0.8960     0.1440 c3         1 T8X       0.163600
     54 C47         -0.6720    -2.0900    -1.6740 c3         1 T8X      -0.038900
     55 C48         -3.8230    -2.6420     0.5370 c3         1 T8X      -0.084100
     56 C49        -19.4450     0.8610    -0.1200 c3         1 T8X      -0.074400
     57 C50        -20.7580     1.6250    -0.2440 c3         1 T8X      -0.074400
     58 C51        -21.9830     0.7190    -0.2470 c3         1 T8X      -0.074400
     59 C52        -23.2950     1.4820    -0.3770 c3         1 T8X      -0.075400
     60 S1           6.5690    -7.0870     2.1840 s6         1 T8X       1.489300
     61 O14          7.4170    -7.1530     3.3770 o          1 T8X      -0.702533
     62 O15          5.2900    -7.7800     2.3130 o          1 T8X      -0.702533
     63 O16          7.2970    -7.3410     0.9400 o          1 T8X      -0.702533
     64 C53         -4.3520     1.0040     3.0730 c3         1 T8X      -0.089100
     65 C54         -5.2730     3.0270    -0.7830 c3         1 T8X      -0.088100
     66 C55        -24.5230     0.5790    -0.3780 c3         1 T8X      -0.075400
     67 C56        -25.8250     1.3550    -0.5200 c3         1 T8X      -0.088100
     68 H1           5.9400    -3.3810    -1.9640 h2         1 T8X       0.096700
     69 H2           3.5600    -3.0730    -2.4540 h1         1 T8X       0.076700
     70 H3           3.0570    -4.0250     0.4120 h1         1 T8X       0.133700
     71 H4           2.4050    -5.3110    -2.2710 h1         1 T8X       0.028700
     72 H5           1.3790    -6.7520    -1.0200 ho         1 T8X       0.497000
     73 H6           4.4500    -6.2220    -0.1900 h1         1 T8X       0.125700
     74 H6A          3.3700    -7.9820    -1.5480 h1         1 T8X       0.008200
     75 HO6          3.8140    -7.1310    -3.0290 h1         1 T8X       0.008200
     76 HAL          5.3740    -8.7340    -2.4470 ho         1 T8X       0.487000
     77 HALA        10.2500    17.2470     0.8900 hc         1 T8X       0.030367
     78 HAM         11.7390    16.5490     1.5180 hc         1 T8X       0.030367
     79 HAN         10.7100    14.1960     1.3470 hc         1 T8X       0.036700
     80 HANA         9.2260    14.8840     0.7260 hc         1 T8X       0.036700
     81 HAO          9.4750    13.5320    -1.3680 hc         1 T8X       0.036700
     82 HAOA        10.9630    12.8480    -0.7500 hc         1 T8X       0.036700
     83 HAP          9.7080    11.8660     1.1810 hc         1 T8X       0.037200
     84 HAPA         8.2200    12.5470     0.5620 hc         1 T8X       0.037200
     85 HAQ          8.4730    11.1970    -1.5320 hc         1 T8X       0.036700
     86 HAQA         9.9640    10.5190    -0.9160 hc         1 T8X       0.036700
     87 HAR          8.7150     9.5300     1.0160 hc         1 T8X       0.037200
     88 HARA         7.2230    10.2030     0.3960 hc         1 T8X       0.037200
     89 HAS          7.4860     8.8580    -1.7000 hc         1 T8X       0.036700
     90 HASA         8.9800     8.1880    -1.0830 hc         1 T8X       0.036700
     91 HAT          7.7320     7.1860     0.8450 hc         1 T8X       0.037200
     92 HATA         6.2380     7.8510     0.2220 hc         1 T8X       0.037200
     93 HAU          6.5190     6.5130    -1.8780 hc         1 T8X       0.036700
     94 HAUA         8.0160     5.8530    -1.2560 hc         1 T8X       0.036700
     95 HAV          6.7650     4.8360     0.6630 hc         1 T8X       0.037200
     96 HAVA         5.2690     5.4870     0.0300 hc         1 T8X       0.037200
     97 HAW          5.5860     4.1600    -2.0730 hc         1 T8X       0.036700
     98 HAWA         7.0820     3.5130    -1.4370 hc         1 T8X       0.036700
     99 HAX          5.8160     2.4810     0.4680 hc         1 T8X       0.038200
    100 HAXA         4.3210     3.1090    -0.1930 hc         1 T8X       0.038200
    101 HAY          4.7110     1.7960    -2.2970 hc         1 T8X       0.054700
    102 HAYA         6.2020     1.1690    -1.6190 hc         1 T8X       0.054700
    103 HAZ          4.8760     0.1620     0.2890 hc         1 T8X       0.073200
    104 HAZA         3.4060     0.7040    -0.4680 hc         1 T8X       0.073200
    105 HBC        -18.2980     2.4810     0.7100 hc         1 T8X       0.036700
    106 HBCA       -18.2080     2.3650    -1.0350 hc         1 T8X       0.036700
    107 HBD        -16.9190     0.4000     0.9190 hc         1 T8X       0.037200
    108 HBDA       -16.8310     0.2830    -0.8250 hc         1 T8X       0.037200
    109 HBE        -15.6670     2.4990    -0.9150 hc         1 T8X       0.036700
    110 HBEA       -15.7510     2.6120     0.8300 hc         1 T8X       0.036700
    111 HBF        -14.3820     0.5240     1.0320 hc         1 T8X       0.037700
    112 HBFA       -14.3020     0.4080    -0.7130 hc         1 T8X       0.037700
    113 HBG        -13.1230     2.6150    -0.8070 hc         1 T8X       0.036700
    114 HBGA       -13.1970     2.7280     0.9390 hc         1 T8X       0.036700
    115 HBH        -11.8450     0.6300     1.1330 hc         1 T8X       0.037700
    116 HBHA       -11.7770     0.5100    -0.6110 hc         1 T8X       0.037700
    117 HBI        -10.5760     2.7040    -0.7180 hc         1 T8X       0.036200
    118 HBIA       -10.6360     2.8210     1.0280 hc         1 T8X       0.036200
    119 HBJ         -9.3090     0.7050     1.2160 hc         1 T8X       0.037700
    120 HBJA        -9.2560     0.5820    -0.5290 hc         1 T8X       0.037700
    121 HBK         -8.0400     2.7700    -0.6380 hc         1 T8X       0.036200
    122 HBKA        -8.0600     2.8670     1.1100 hc         1 T8X       0.036200
    123 HBL         -6.8450     0.6670     1.2200 hc         1 T8X       0.039200
    124 HBLA        -6.7200     0.6560    -0.5230 hc         1 T8X       0.039200
    125 HBM         -5.5100     2.7570     1.3190 hc         1 T8X       0.044700
    126 HBN         -4.1820     0.6100    -0.3730 hc         1 T8X       0.039700
    127 HBNA        -3.3390     1.8060     0.5890 hc         1 T8X       0.039700
    128 HBO         -5.0840    -0.4370     1.6820 hc         1 T8X       0.045700
    129 HBP         -2.0890     0.0770     1.8390 hc         1 T8X       0.045700
    130 HBPA        -2.9350    -1.1910     2.7010 hc         1 T8X       0.045700
    131 HBQ         -2.7760    -0.9890    -0.3360 hc         1 T8X       0.052700
    132 HBR          6.7810    -2.8490     4.4840 ho         1 T8X       0.433000
    133 HBRA         8.1440    -0.5140     3.0710 ho         1 T8X       0.494000
    134 HOBX         8.7690     0.0830    -1.5010 ho         1 T8X       0.490000
    135 HOBY         7.2630    -5.0460    -0.3210 h2         1 T8X       0.130700
    136 HOCA         8.0310    -4.8740     1.9670 h1         1 T8X       0.067700
    137 HCB          5.7090    -2.9650     2.4470 h1         1 T8X       0.067700
    138 HCC          8.7150    -2.4940     2.3650 h1         1 T8X       0.048700
    139 HCD          6.5020    -1.5690     0.4810 h1         1 T8X       0.063700
    140 HCE          9.5220    -1.2640     0.2830 h1         1 T8X       0.017200
    141 HCF          8.3930     0.0100     0.7520 h1         1 T8X       0.017200
    142 HCG          0.0920    -1.3890    -2.0150 hc         1 T8X       0.042033
    143 HCGA        -0.6000    -2.9740    -2.3080 hc         1 T8X       0.042033
    144 HCH         -1.6410    -1.6360    -1.8610 hc         1 T8X       0.042033
    145 HCHA        -4.8180    -2.2080     0.4400 hc         1 T8X       0.035367
    146 HCHB        -3.6670    -3.3030    -0.3160 hc         1 T8X       0.035367
    147 HCI         -3.8120    -3.2530     1.4410 hc         1 T8X       0.035367
    148 HCIA       -19.3630     0.1440    -0.9450 hc         1 T8X       0.037700
    149 HCIB       -19.4570     0.2640     0.7990 hc         1 T8X       0.037700
    150 HCJ        -20.8400     2.3420     0.5810 hc         1 T8X       0.036700
    151 HCJA       -20.7460     2.2210    -1.1630 hc         1 T8X       0.036700
    152 HCK        -21.8980    -0.0010    -1.0690 hc         1 T8X       0.036700
    153 HCKA       -21.9970     0.1250     0.6740 hc         1 T8X       0.036700
    154 HCL        -23.3800     2.2040     0.4430 hc         1 T8X       0.036700
    155 HCLA       -23.2810     2.0740    -1.3000 hc         1 T8X       0.036700
    156 HCMA        -5.2910     1.5540     3.1410 hc         1 T8X       0.031700
    157 HOCO        -4.3100     0.3240     3.9260 hc         1 T8X       0.031700
    158 HCR         -3.5400     1.7280     3.1850 hc         1 T8X       0.031700
    159 HCRA        -5.2750     2.4470    -1.7100 hc         1 T8X       0.031033
    160 HCRB        -6.0560     3.7820    -0.8650 hc         1 T8X       0.031033
    161 HCS         -4.3190     3.5550    -0.7300 hc         1 T8X       0.031033
    162 HCSA       -24.4360    -0.1450    -1.1940 hc         1 T8X       0.036700
    163 HCSB       -24.5410    -0.0060     0.5460 hc         1 T8X       0.036700
    164 HCT        -25.9490     2.0690     0.2970 hc         1 T8X       0.030367
    165 HCTA       -25.8460     1.9190    -1.4540 hc         1 T8X       0.030367
    166 HCU        -26.6920     0.6940    -0.5140 hc         1 T8X       0.030367
    167 HCUA        -1.1610    -2.5370     1.7430 ha         1 T8X       0.197000
    168 HCUB        11.7840    17.5750     0.0880 hc         1 T8X       0.030367
    169 H103        10.4910    15.8640    -1.2000 hc         1 T8X       0.036200
    170 H104        11.9720    15.1750    -0.5780 hc         1 T8X       0.036200
    171 O13          8.2100    -0.6430    -1.2110 oh         1 T8X      -0.701000
    172 C21          4.4350     0.3970    -0.6840 c3         1 T8X      -0.137400
    173 C39         -0.4990    -2.4390    -0.2250 ce         1 T8X      -0.158400
    174 C15          7.2190     7.4680    -0.0810 c3         1 T8X      -0.074400
    175 C31         -8.0370     2.1610     0.2720 c3         1 T8X      -0.073400
    176 C16          7.0330     6.2320    -0.9520 c3         1 T8X      -0.074400
@<TRIPOS>BOND
     1     1     2 1   
     2     1     3 1   
     3     1    10 1   
     4     1    68 1   
     5     2    48 1   
     6     3     4 1   
     7     3     5 1   
     8     3    69 1   
     9     4    25 1   
    10     5     6 1   
    11     5     7 1   
    12     5    70 1   
    13     6    42 1   
    14     7     8 1   
    15     7     9 1   
    16     7    71 1   
    17     8    72 1   
    18     9    10 1   
    19     9    11 1   
    20     9    73 1   
    21    11    12 1   
    22    11    74 1   
    23    11    75 1   
    24    12    76 1   
    25    13    14 1   
    26    13    77 1   
    27    13    78 1   
    28    13   168 1   
    29    14    15 1   
    30    14   169 1   
    31    14   170 1   
    32    15    16 1   
    33    15    79 1   
    34    15    80 1   
    35    16    17 1   
    36    16    81 1   
    37    16    82 1   
    38    17    18 1   
    39    17    83 1   
    40    17    84 1   
    41    18    19 1   
    42    18    85 1   
    43    18    86 1   
    44    19    20 1   
    45    19    87 1   
    46    19    88 1   
    47    20    89 1   
    48    20    90 1   
    49    20   174 1   
    50    21    22 1   
    51    21    95 1   
    52    21    96 1   
    53    21   176 1   
    54    22    23 1   
    55    22    97 1   
    56    22    98 1   
    57    23    24 1   
    58    23    99 1   
    59    23   100 1   
    60    24   101 1   
    61    24   102 1   
    62    24   172 1   
    63    25    26 2   
    64    25   172 1   
    65    27    28 1   
    66    27    56 1   
    67    27   105 1   
    68    27   106 1   
    69    28    29 1   
    70    28   107 1   
    71    28   108 1   
    72    29    30 1   
    73    29   109 1   
    74    29   110 1   
    75    30    31 1   
    76    30   111 1   
    77    30   112 1   
    78    31    32 1   
    79    31   113 1   
    80    31   114 1   
    81    32    33 1   
    82    32   115 1   
    83    32   116 1   
    84    33    34 1   
    85    33   117 1   
    86    33   118 1   
    87    34   119 1   
    88    34   120 1   
    89    34   175 1   
    90    35    36 1   
    91    35   123 1   
    92    35   124 1   
    93    35   175 1   
    94    36    37 1   
    95    36    65 1   
    96    36   125 1   
    97    37    38 1   
    98    37   126 1   
    99    37   127 1   
   100    38    39 1   
   101    38    64 1   
   102    38   128 1   
   103    39    40 1   
   104    39   129 1   
   105    39   130 1   
   106    40    41 1   
   107    40    55 1   
   108    40   131 1   
   109    41   167 1   
   110    41   173 2   
   111    42    43 2   
   112    42   173 1   
   113    44    49 1   
   114    44    60 1   
   115    45    50 1   
   116    45   132 1   
   117    46    51 1   
   118    46   133 1   
   119    47    48 1   
   120    47    52 1   
   121    48    49 1   
   122    48   135 1   
   123    49    50 1   
   124    49   136 1   
   125    50    51 1   
   126    50   137 1   
   127    51    52 1   
   128    51   138 1   
   129    52    53 1   
   130    52   139 1   
   131    53   140 1   
   132    53   141 1   
   133    53   171 1   
   134    54   142 1   
   135    54   143 1   
   136    54   144 1   
   137    54   173 1   
   138    55   145 1   
   139    55   146 1   
   140    55   147 1   
   141    56    57 1   
   142    56   148 1   
   143    56   149 1   
   144    57    58 1   
   145    57   150 1   
   146    57   151 1   
   147    58    59 1   
   148    58   152 1   
   149    58   153 1   
   150    59    66 1   
   151    59   154 1   
   152    59   155 1   
   153    60    61 1   
   154    60    62 1   
   155    60    63 1   
   156    64   156 1   
   157    64   157 1   
   158    64   158 1   
   159    65   159 1   
   160    65   160 1   
   161    65   161 1   
   162    66    67 1   
   163    66   162 1   
   164    66   163 1   
   165    67   164 1   
   166    67   165 1   
   167    67   166 1   
   168    91   174 1   
   169    92   174 1   
   170    93   176 1   
   171    94   176 1   
   172   103   172 1   
   173   104   172 1   
   174   121   175 1   
   175   122   175 1   
   176   134   171 1   
   177   174   176 1   
@<TRIPOS>SUBSTRUCTURE
     1 T8X         1 TEMP              0 ****  ****    0 ROOT
