@<TRIPOS>MOLECULE
T8X
  176   177     1     0     0
SMALL
No Charge or Current Charge


@<TRIPOS>ATOM
      1 C1           5.3530    -3.9460    -1.1060 c6         1 T8X       0.370300
      2 O1           5.9320    -3.4470     0.1140 os         1 T8X      -0.476000
      3 C2           3.8540    -3.5100    -1.2270 c6         1 T8X       0.144300
      4 O2           3.6980    -2.0670    -1.2460 os         1 T8X      -0.425100
      5 C3           3.0300    -4.1520    -0.0730 c6         1 T8X       0.167300
      6 O3           1.6140    -3.8490    -0.1850 os         1 T8X      -0.454100
      7 C4           3.2140    -5.6960    -0.0930 c6         1 T8X       0.135300
      8 O4           2.4670    -6.3090     0.9750 oh         1 T8X      -0.690000
      9 C5           4.7270    -6.0600    -0.0320 c6         1 T8X       0.138300
     10 O5           5.4390    -5.3890    -1.1100 os         1 T8X      -0.457000
     11 C6           4.9640    -7.6000    -0.1740 c3         1 T8X       0.175600
     12 O6           6.3530    -7.9590    -0.2510 oh         1 T8X      -0.665000
     13 C7          10.8150    16.0670     2.6910 c3         1 T8X      -0.088100
     14 C8          11.0520    14.5540     2.5180 c3         1 T8X      -0.075400
     15 C9           9.8080    13.8030     1.9970 c3         1 T8X      -0.075400
     16 C10         10.0440    12.2850     1.8290 c3         1 T8X      -0.074400
     17 C11          8.8010    11.5330     1.3050 c3         1 T8X      -0.074400
     18 C12          9.0370    10.0150     1.1450 c3         1 T8X      -0.074400
     19 C13          7.7950     9.2620     0.6200 c3         1 T8X      -0.074400
     20 C14          8.0310     7.7440     0.4620 c3         1 T8X      -0.074400
     21 C17          5.7920     4.7180    -0.7630 c3         1 T8X      -0.074400
     22 C18          6.0260     3.1990    -0.9050 c3         1 T8X      -0.074400
     23 C19          4.7930     2.4430    -1.4480 c3         1 T8X      -0.076400
     24 C20          5.0350     0.9250    -1.5860 c3         1 T8X      -0.069400
     25 C22          4.1100    -1.3270    -2.3190 c          1 T8X       0.600100
     26 O7           4.6080    -1.8010    -3.3300 o          1 T8X      -0.492000
     27 C23        -18.5410     1.8350     0.1380 c3         1 T8X      -0.074400
     28 C24        -17.1780     1.2640     0.5910 c3         1 T8X      -0.074400
     29 C25        -16.0000     1.7650    -0.2730 c3         1 T8X      -0.073400
     30 C26        -14.6340     1.1980     0.1720 c3         1 T8X      -0.075400
     31 C27        -13.4650     1.6860    -0.7120 c3         1 T8X      -0.073400
     32 C28        -12.0950     1.1150    -0.2820 c3         1 T8X      -0.075400
     33 C29        -10.9380     1.5880    -1.1910 c3         1 T8X      -0.073400
     34 C30         -9.5650     1.0110    -0.7810 c3         1 T8X      -0.076400
     35 C32         -7.0450     0.8780    -1.3170 c3         1 T8X      -0.073400
     36 C33         -5.8420     1.3880    -2.1680 c3         1 T8X      -0.056700
     37 C34         -4.4760     0.8250    -1.6700 c3         1 T8X      -0.071400
     38 C35         -4.0590     1.1420    -0.1980 c3         1 T8X      -0.057700
     39 C36         -2.6550     0.5620     0.1590 c3         1 T8X      -0.071400
     40 C37         -2.4690    -0.9800     0.0360 c3         1 T8X      -0.032500
     41 C38         -1.0260    -1.3720     0.3320 c2         1 T8X      -0.162200
     42 C40          1.0960    -2.6730     0.2990 c          1 T8X       0.602300
     43 O8           1.7220    -1.8980     1.0090 o          1 T8X      -0.461000
     44 O9           7.2020    -3.9990     2.7260 os         1 T8X      -0.567700
     45 O10          8.0700    -1.2070     3.1130 oh         1 T8X      -0.622000
     46 O11          8.1170     0.4900     0.8640 oh         1 T8X      -0.727000
     47 O12          8.0490    -2.8940    -0.7570 os         1 T8X      -0.466000
     48 C41          7.3540    -3.6650     0.2540 c6         1 T8X       0.349300
     49 C42          7.8620    -3.2450     1.6770 c6         1 T8X       0.226300
     50 C43          7.6210    -1.7090     1.8400 c6         1 T8X       0.165300
     51 C44          8.3490    -0.9280     0.7070 c6         1 T8X       0.091300
     52 C45          7.8600    -1.4550    -0.6780 c6         1 T8X       0.143300
     53 C46          8.6190    -0.7960    -1.8780 c3         1 T8X       0.163600
     54 C47         -0.9770    -3.5510    -0.9860 c3         1 T8X      -0.038900
     55 C48         -3.4380    -1.7710     0.9460 c3         1 T8X      -0.084100
     56 C49        -19.7250     1.3230     0.9880 c3         1 T8X      -0.074400
     57 C50        -21.0850     1.8990     0.5350 c3         1 T8X      -0.074400
     58 C51        -22.2720     1.3790     1.3760 c3         1 T8X      -0.074400
     59 C52        -23.6310     1.9580     0.9260 c3         1 T8X      -0.075400
     60 S1           7.9930    -5.2940     3.3470 s6         1 T8X       1.489300
     61 O14          9.0140    -4.7010     4.2210 o          1 T8X      -0.702533
     62 O15          6.9450    -6.0400     4.0570 o          1 T8X      -0.702533
     63 O16          8.5390    -5.9790     2.1690 o          1 T8X      -0.702533
     64 C53         -4.0880     2.6610     0.1070 c3         1 T8X      -0.089100
     65 C54         -6.0160     1.0750    -3.6760 c3         1 T8X      -0.088100
     66 C55        -24.8180     1.4340     1.7650 c3         1 T8X      -0.075400
     67 C56        -26.1740     2.0130     1.3180 c3         1 T8X      -0.088100
     68 H1           5.9100    -3.5470    -1.9690 h2         1 T8X       0.096700
     69 H2           3.4620    -3.9040    -2.1760 h1         1 T8X       0.076700
     70 H3           3.4120    -3.7760     0.8890 h1         1 T8X       0.133700
     71 H4           2.8250    -6.0640    -1.0540 h1         1 T8X       0.028700
     72 H5           1.5500    -5.9540     0.9060 ho         1 T8X       0.497000
     73 H6           5.1430    -5.7430     0.9370 h1         1 T8X       0.125700
     74 H6A          4.5000    -8.1030     0.6840 h1         1 T8X       0.008200
     75 HO6          4.4430    -7.9460    -1.0760 h1         1 T8X       0.008200
     76 HAL          6.3900    -8.9340    -0.3790 ho         1 T8X       0.487000
     77 HALA        10.5400    16.5290     1.7340 hc         1 T8X       0.030367
     78 HAM         10.0090    16.2540     3.4100 hc         1 T8X       0.030367
     79 HAN          8.9730    13.9620     2.6920 hc         1 T8X       0.036700
     80 HANA         9.5070    14.2300     1.0320 hc         1 T8X       0.036700
     81 HAO         10.8800    12.1260     1.1360 hc         1 T8X       0.036700
     82 HAOA        10.3430    11.8590     2.7950 hc         1 T8X       0.036700
     83 HAP          7.9640    11.6970     1.9950 hc         1 T8X       0.037200
     84 HAPA         8.5060    11.9560     0.3360 hc         1 T8X       0.037200
     85 HAQ          9.8750     9.8510     0.4570 hc         1 T8X       0.036700
     86 HAQA         9.3310     9.5930     2.1140 hc         1 T8X       0.036700
     87 HAR          6.9560     9.4270     1.3070 hc         1 T8X       0.037200
     88 HARA         7.5020     9.6830    -0.3500 hc         1 T8X       0.037200
     89 HAS          8.8730     7.5790    -0.2210 hc         1 T8X       0.036700
     90 HASA         8.3190     7.3210     1.4330 hc         1 T8X       0.036700
     91 HAT          5.9490     7.1560     0.6120 hc         1 T8X       0.037200
     92 HATA         6.5060     7.4110    -1.0430 hc         1 T8X       0.037200
     93 HAU          7.8750     5.3060    -0.9040 hc         1 T8X       0.036700
     94 HAUA         7.3110     5.0510     0.7480 hc         1 T8X       0.036700
     95 HAV          4.9440     4.8910    -0.0890 hc         1 T8X       0.037200
     96 HAVA         5.5150     5.1330    -1.7400 hc         1 T8X       0.037200
     97 HAW          6.8780     3.0260    -1.5750 hc         1 T8X       0.036700
     98 HAWA         6.2990     2.7850     0.0740 hc         1 T8X       0.036700
     99 HAX          3.9420     2.6140    -0.7770 hc         1 T8X       0.038200
    100 HAXA         4.5200     2.8570    -2.4260 hc         1 T8X       0.038200
    101 HAY          5.8900     0.7570    -2.2520 hc         1 T8X       0.054700
    102 HAYA         5.3030     0.5150    -0.6040 hc         1 T8X       0.054700
    103 HAZ          2.9990     0.2740    -1.4020 hc         1 T8X       0.073200
    104 HAZA         3.5180     0.5900    -3.1010 hc         1 T8X       0.073200
    105 HBC        -18.5070     2.9310     0.1900 hc         1 T8X       0.036700
    106 HBCA       -18.7110     1.5680    -0.9130 hc         1 T8X       0.036700
    107 HBD        -17.0010     1.5410     1.6390 hc         1 T8X       0.037200
    108 HBDA       -17.2140     0.1680     0.5500 hc         1 T8X       0.037200
    109 HBE        -16.1800     1.4880    -1.3200 hc         1 T8X       0.036700
    110 HBEA       -15.9640     2.8620    -0.2340 hc         1 T8X       0.036700
    111 HBF        -14.4440     1.4860     1.2140 hc         1 T8X       0.037700
    112 HBFA       -14.6720     0.1010     0.1450 hc         1 T8X       0.037700
    113 HBG        -13.6610     1.4030    -1.7540 hc         1 T8X       0.036700
    114 HBGA       -13.4230     2.7820    -0.6810 hc         1 T8X       0.036700
    115 HBH        -11.8870     1.4130     0.7530 hc         1 T8X       0.037700
    116 HBHA       -12.1400     0.0190    -0.2990 hc         1 T8X       0.037700
    117 HBI        -11.1540     1.2970    -2.2270 hc         1 T8X       0.036200
    118 HBIA       -10.8880     2.6840    -1.1700 hc         1 T8X       0.036200
    119 HBJ         -9.3370     1.3180     0.2480 hc         1 T8X       0.037700
    120 HBJA        -9.6190    -0.0850    -0.7850 hc         1 T8X       0.037700
    121 HBK         -8.6710     1.1620    -2.7380 hc         1 T8X       0.036200
    122 HBKA        -8.3620     2.5600    -1.7060 hc         1 T8X       0.036200
    123 HBL         -6.8730     1.1280    -0.2640 hc         1 T8X       0.039200
    124 HBLA        -7.0900    -0.2170    -1.3760 hc         1 T8X       0.039200
    125 HBM         -5.8100     2.4810    -2.0820 hc         1 T8X       0.044700
    126 HBN         -4.5060    -0.2620    -1.8060 hc         1 T8X       0.039700
    127 HBNA        -3.6840     1.1950    -2.3330 hc         1 T8X       0.039700
    128 HBO         -4.7840     0.6730     0.4770 hc         1 T8X       0.045700
    129 HBP         -1.9080     1.0510    -0.4790 hc         1 T8X       0.045700
    130 HBPA        -2.4110     0.8530     1.1890 hc         1 T8X       0.045700
    131 HBQ         -2.6840    -1.2510    -1.0030 hc         1 T8X       0.052700
    132 HBR          8.1470    -0.2370     2.9750 ho         1 T8X       0.433000
    133 HBRA         8.8560     0.9660     0.4190 ho         1 T8X       0.494000
    134 HOBX         8.8370    -0.9320    -3.8270 ho         1 T8X       0.490000
    135 HOBY         7.5780    -4.7350     0.1130 h2         1 T8X       0.130700
    136 HOCA         8.9480    -3.4160     1.7260 h1         1 T8X       0.067700
    137 HCB          6.5410    -1.5230     1.7380 h1         1 T8X       0.067700
    138 HCC          9.4270    -1.1380     0.7880 h1         1 T8X       0.048700
    139 HCD          6.7910    -1.2340    -0.7940 h1         1 T8X       0.063700
    140 HCE          9.6960    -0.9440    -1.7250 h1         1 T8X       0.017200
    141 HCF          8.4320     0.2860    -1.8550 h1         1 T8X       0.017200
    142 HCG         -0.4530    -3.6220    -1.9470 hc         1 T8X       0.042033
    143 HCGA        -0.9250    -4.5360    -0.5070 hc         1 T8X       0.042033
    144 HCH         -2.0330    -3.3710    -1.2120 hc         1 T8X       0.042033
    145 HCHA        -4.4800    -1.6160     0.6450 hc         1 T8X       0.035367
    146 HCHB        -3.2360    -2.8470     0.8890 hc         1 T8X       0.035367
    147 HCI         -3.3290    -1.4620     1.9930 hc         1 T8X       0.035367
    148 HCIA       -19.7610     0.2280     0.9330 hc         1 T8X       0.037700
    149 HCIB       -19.5540     1.5860     2.0400 hc         1 T8X       0.037700
    150 HCJ        -21.0520     2.9940     0.5970 hc         1 T8X       0.036700
    151 HCJA       -21.2520     1.6420    -0.5190 hc         1 T8X       0.036700
    152 HCK        -22.3070     0.2840     1.3110 hc         1 T8X       0.036700
    153 HCKA       -22.1040     1.6320     2.4310 hc         1 T8X       0.036700
    154 HCL        -23.5970     3.0530     0.9940 hc         1 T8X       0.036700
    155 HCLA       -23.7980     1.7080    -0.1300 hc         1 T8X       0.036700
    156 HCMA        -5.1050     3.0630     0.0310 hc         1 T8X       0.031700
    157 HOCO        -3.7370     2.8600     1.1270 hc         1 T8X       0.031700
    158 HCR         -3.4430     3.2120    -0.5900 hc         1 T8X       0.031700
    159 HCRA        -6.1550    -0.0010    -3.8400 hc         1 T8X       0.031033
    160 HCRB        -6.8790     1.6050    -4.0970 hc         1 T8X       0.031033
    161 HCS         -5.1330     1.3950    -4.2430 hc         1 T8X       0.031033
    162 HCSA       -24.8580     0.3390     1.6950 hc         1 T8X       0.036700
    163 HCSB       -24.6550     1.6820     2.8210 hc         1 T8X       0.036700
    164 HCT        -26.1790     3.1060     1.4090 hc         1 T8X       0.030367
    165 HCTA       -26.3830     1.7510     0.2730 hc         1 T8X       0.030367
    166 HCU        -26.9840     1.6130     1.9410 hc         1 T8X       0.030367
    167 HCUA        -0.5110    -0.6510     0.9700 ha         1 T8X       0.197000
    168 HCUB        11.7250    16.5570     3.0590 hc         1 T8X       0.030367
    169 H103        11.8870    14.4020     1.8220 hc         1 T8X       0.036200
    170 H104        11.3570    14.1290     3.4820 hc         1 T8X       0.036200
    171 O13          8.2310    -1.3250    -3.1590 oh         1 T8X      -0.701000
    172 C21          3.8070     0.1610    -2.1350 c3         1 T8X      -0.137400
    173 C39         -0.3490    -2.4730    -0.0980 ce         1 T8X      -0.158400
    174 C15          6.7920     6.9900    -0.0710 c3         1 T8X      -0.074400
    175 C31         -8.4210     1.4650    -1.7150 c3         1 T8X      -0.073400
    176 C16          7.0290     5.4720    -0.2250 c3         1 T8X      -0.074400
@<TRIPOS>BOND
     1     1     2 1   
     2     1     3 1   
     3     1    10 1   
     4     1    68 1   
     5     2    48 1   
     6     3     4 1   
     7     3     5 1   
     8     3    69 1   
     9     4    25 1   
    10     5     6 1   
    11     5     7 1   
    12     5    70 1   
    13     6    42 1   
    14     7     8 1   
    15     7     9 1   
    16     7    71 1   
    17     8    72 1   
    18     9    10 1   
    19     9    11 1   
    20     9    73 1   
    21    11    12 1   
    22    11    74 1   
    23    11    75 1   
    24    12    76 1   
    25    13    14 1   
    26    13    77 1   
    27    13    78 1   
    28    13   168 1   
    29    14    15 1   
    30    14   169 1   
    31    14   170 1   
    32    15    16 1   
    33    15    79 1   
    34    15    80 1   
    35    16    17 1   
    36    16    81 1   
    37    16    82 1   
    38    17    18 1   
    39    17    83 1   
    40    17    84 1   
    41    18    19 1   
    42    18    85 1   
    43    18    86 1   
    44    19    20 1   
    45    19    87 1   
    46    19    88 1   
    47    20    89 1   
    48    20    90 1   
    49    20   174 1   
    50    21    22 1   
    51    21    95 1   
    52    21    96 1   
    53    21   176 1   
    54    22    23 1   
    55    22    97 1   
    56    22    98 1   
    57    23    24 1   
    58    23    99 1   
    59    23   100 1   
    60    24   101 1   
    61    24   102 1   
    62    24   172 1   
    63    25    26 2   
    64    25   172 1   
    65    27    28 1   
    66    27    56 1   
    67    27   105 1   
    68    27   106 1   
    69    28    29 1   
    70    28   107 1   
    71    28   108 1   
    72    29    30 1   
    73    29   109 1   
    74    29   110 1   
    75    30    31 1   
    76    30   111 1   
    77    30   112 1   
    78    31    32 1   
    79    31   113 1   
    80    31   114 1   
    81    32    33 1   
    82    32   115 1   
    83    32   116 1   
    84    33    34 1   
    85    33   117 1   
    86    33   118 1   
    87    34   119 1   
    88    34   120 1   
    89    34   175 1   
    90    35    36 1   
    91    35   123 1   
    92    35   124 1   
    93    35   175 1   
    94    36    37 1   
    95    36    65 1   
    96    36   125 1   
    97    37    38 1   
    98    37   126 1   
    99    37   127 1   
   100    38    39 1   
   101    38    64 1   
   102    38   128 1   
   103    39    40 1   
   104    39   129 1   
   105    39   130 1   
   106    40    41 1   
   107    40    55 1   
   108    40   131 1   
   109    41   167 1   
   110    41   173 2   
   111    42    43 2   
   112    42   173 1   
   113    44    49 1   
   114    44    60 1   
   115    45    50 1   
   116    45   132 1   
   117    46    51 1   
   118    46   133 1   
   119    47    48 1   
   120    47    52 1   
   121    48    49 1   
   122    48   135 1   
   123    49    50 1   
   124    49   136 1   
   125    50    51 1   
   126    50   137 1   
   127    51    52 1   
   128    51   138 1   
   129    52    53 1   
   130    52   139 1   
   131    53   140 1   
   132    53   141 1   
   133    53   171 1   
   134    54   142 1   
   135    54   143 1   
   136    54   144 1   
   137    54   173 1   
   138    55   145 1   
   139    55   146 1   
   140    55   147 1   
   141    56    57 1   
   142    56   148 1   
   143    56   149 1   
   144    57    58 1   
   145    57   150 1   
   146    57   151 1   
   147    58    59 1   
   148    58   152 1   
   149    58   153 1   
   150    59    66 1   
   151    59   154 1   
   152    59   155 1   
   153    60    61 1   
   154    60    62 1   
   155    60    63 1   
   156    64   156 1   
   157    64   157 1   
   158    64   158 1   
   159    65   159 1   
   160    65   160 1   
   161    65   161 1   
   162    66    67 1   
   163    66   162 1   
   164    66   163 1   
   165    67   164 1   
   166    67   165 1   
   167    67   166 1   
   168    91   174 1   
   169    92   174 1   
   170    93   176 1   
   171    94   176 1   
   172   103   172 1   
   173   104   172 1   
   174   121   175 1   
   175   122   175 1   
   176   134   171 1   
   177   174   176 1   
@<TRIPOS>SUBSTRUCTURE
     1 T8X         1 TEMP              0 ****  ****    0 ROOT
