@<TRIPOS>MOLECULE
T8Y
   26    26     1     0     0
SMALL
abcg2


@<TRIPOS>ATOM
      1 N1          -1.3680    -0.0860     0.2880 n          1 T8Y      -0.417800
      2 C4          -0.6380     1.1390     0.5520 c6         1 T8Y       0.076250
      3 C5           0.5490     1.2620    -0.3960 c6         1 T8Y       0.076250
      4 C6          -2.6700    -0.1600    -0.0750 c          1 T8Y       0.609100
      5 C7          -3.4340     1.1390    -0.1820 c3         1 T8Y      -0.176100
      6 N            1.3800     0.0770    -0.3120 n          1 T8Y      -0.417800
      7 C            3.4200    -1.1560     0.2410 c3         1 T8Y      -0.176100
      8 O            3.2020     1.2130     0.3790 o          1 T8Y      -0.604100
      9 C1           2.6630     0.1450     0.1150 c          1 T8Y       0.609100
     10 C2           0.6480    -1.1450    -0.5830 c6         1 T8Y       0.076250
     11 C3          -0.5380    -1.2740     0.3640 c6         1 T8Y       0.076250
     12 O1          -3.2170    -1.2300    -0.3090 o          1 T8Y      -0.604100
     13 H7          -1.2800     2.0080     0.4430 h1         1 T8Y       0.062825
     14 H8          -0.2770     1.1270     1.5850 h1         1 T8Y       0.062825
     15 H9           0.1870     1.3760    -1.4230 h1         1 T8Y       0.062825
     16 H10          1.1330     2.1430    -0.1470 h1         1 T8Y       0.062825
     17 H13         -3.0120     1.7900    -0.9490 hc         1 T8Y       0.061367
     18 H12         -4.4650     0.9210    -0.4490 hc         1 T8Y       0.061367
     19 H11         -3.4320     1.6940     0.7570 hc         1 T8Y       0.061367
     20 H2           2.9590    -1.8220     0.9720 hc         1 T8Y       0.061367
     21 H            3.4670    -1.6920    -0.7080 hc         1 T8Y       0.061367
     22 H1           4.4350    -0.9440     0.5670 hc         1 T8Y       0.061367
     23 H3           0.2870    -1.1230    -1.6160 h1         1 T8Y       0.062825
     24 H4           1.2890    -2.0170    -0.4850 h1         1 T8Y       0.062825
     25 H5          -0.1770    -1.3980     1.3900 h1         1 T8Y       0.062825
     26 H6          -1.1250    -2.1500     0.1070 h1         1 T8Y       0.062825
@<TRIPOS>BOND
     1     1     2 1   
     2     1     4 1   
     3     1    11 1   
     4     2     3 1   
     5     2    13 1   
     6     2    14 1   
     7     3     6 1   
     8     3    15 1   
     9     3    16 1   
    10     4     5 1   
    11     4    12 2   
    12     5    17 1   
    13     5    18 1   
    14     5    19 1   
    15     6     9 1   
    16     6    10 1   
    17     7     9 1   
    18     7    20 1   
    19     7    21 1   
    20     7    22 1   
    21     8     9 2   
    22    10    11 1   
    23    10    23 1   
    24    10    24 1   
    25    11    25 1   
    26    11    26 1   
@<TRIPOS>SUBSTRUCTURE
     1 T8Y         1 TEMP              0 ****  ****    0 ROOT
