@<TRIPOS>MOLECULE
T8Y
   26    26     1     0     0
SMALL
No Charge or Current Charge


@<TRIPOS>ATOM
      1 N1          -1.4960    -0.0490    -0.0590 n          1 T8Y      -0.417800
      2 C4          -0.7760     1.1790     0.3830 c6         1 T8Y       0.076250
      3 C5           0.6920     1.2770    -0.0970 c6         1 T8Y       0.076250
      4 C6          -2.9080    -0.1230     0.0050 c          1 T8Y       0.609100
      5 C7          -3.7230     1.1640    -0.1450 c3         1 T8Y      -0.176100
      6 N            1.4940     0.0340     0.0700 n          1 T8Y      -0.417800
      7 C            3.7230    -1.1740     0.1530 c3         1 T8Y      -0.176100
      8 O            3.4770     1.1900    -0.0950 o          1 T8Y      -0.604100
      9 C1           2.9070     0.1110     0.0060 c          1 T8Y       0.609100
     10 C2           0.7740    -1.1930    -0.3730 c6         1 T8Y       0.076250
     11 C3          -0.6940    -1.2910     0.1070 c6         1 T8Y       0.076250
     12 O1          -3.4810    -1.2000     0.1080 o          1 T8Y      -0.604100
     13 H7          -1.2970     2.0810     0.0370 h1         1 T8Y       0.062825
     14 H8          -0.7850     1.2030     1.4820 h1         1 T8Y       0.062825
     15 H9           0.6920     1.5430    -1.1630 h1         1 T8Y       0.062825
     16 H10          1.1740     2.1060     0.4410 h1         1 T8Y       0.062825
     17 H13         -3.3420     1.7390    -0.9960 hc         1 T8Y       0.061367
     18 H12         -4.7980     0.9710    -0.2340 hc         1 T8Y       0.061367
     19 H11         -3.5150     1.8200     0.7080 hc         1 T8Y       0.061367
     20 H2           3.3430    -1.7520     1.0030 hc         1 T8Y       0.061367
     21 H            3.5160    -1.8290    -0.7000 hc         1 T8Y       0.061367
     22 H1           4.7980    -0.9800     0.2420 hc         1 T8Y       0.061367
     23 H3           0.7830    -1.2160    -1.4730 h1         1 T8Y       0.062825
     24 H4           1.2960    -2.0960    -0.0290 h1         1 T8Y       0.062825
     25 H5          -0.6930    -1.5570     1.1740 h1         1 T8Y       0.062825
     26 H6          -1.1750    -2.1210    -0.4300 h1         1 T8Y       0.062825
@<TRIPOS>BOND
     1     1     2 1   
     2     1     4 1   
     3     1    11 1   
     4     2     3 1   
     5     2    13 1   
     6     2    14 1   
     7     3     6 1   
     8     3    15 1   
     9     3    16 1   
    10     4     5 1   
    11     4    12 2   
    12     5    17 1   
    13     5    18 1   
    14     5    19 1   
    15     6     9 1   
    16     6    10 1   
    17     7     9 1   
    18     7    20 1   
    19     7    21 1   
    20     7    22 1   
    21     8     9 2   
    22    10    11 1   
    23    10    23 1   
    24    10    24 1   
    25    11    25 1   
    26    11    26 1   
@<TRIPOS>SUBSTRUCTURE
     1 T8Y         1 TEMP              0 ****  ****    0 ROOT
