@<TRIPOS>MOLECULE
T90
   47    49     1     0     0
SMALL
bcc


@<TRIPOS>ATOM
      1 C01          4.9270    -2.0460    -0.8360 c3         1 T90      -0.125400
      2 C02          3.4480    -2.0980    -0.8940 cc         1 T90       0.400800
      3 N03          2.7280    -2.6480    -1.8280 nd         1 T90      -0.360000
      4 N04          1.4160    -2.5020    -1.4940 nd         1 T90      -0.366000
      5 C05          1.3740    -1.8510    -0.3690 cc         1 T90       0.483800
      6 N06          2.6310    -1.5750     0.0630 na         1 T90      -0.329700
      7 C07          3.0340    -0.8120     1.2290 c3         1 T90       0.096600
      8 C08          3.4460     0.5970     0.8860 ca         1 T90      -0.117300
      9 C09          2.6270     1.4180     0.1130 ca         1 T90      -0.110000
     10 C10          3.0160     2.7160    -0.1800 ca         1 T90      -0.130500
     11 C11          4.2220     3.2130     0.3010 ca         1 T90      -0.116000
     12 C12          5.0380     2.4020     1.0770 ca         1 T90      -0.130500
     13 C13          4.6500     1.1000     1.3650 ca         1 T90      -0.110000
     14 S14         -0.0440    -1.3610     0.5140 ss         1 T90      -0.312400
     15 C15         -1.2940    -1.3620    -0.8250 c3         1 T90       0.085000
     16 C16         -2.3890    -0.4310    -0.4130 ca         1 T90      -0.143300
     17 C17         -2.2310     0.9580    -0.5600 ca         1 T90       0.189100
     18 O18         -1.0800     1.3660    -1.0970 os         1 T90      -0.308900
     19 C19         -0.8730     2.7490    -1.3260 c3         1 T90       0.122700
     20 C20         -3.2520     1.8190    -0.1540 ca         1 T90      -0.238000
     21 C21         -4.4090     1.3040     0.4000 ca         1 T90      -0.022000
     22 C22         -4.5870    -0.0690     0.5560 ca         1 T90      -0.221600
     23 C23         -5.8450    -0.5830     1.1500 c          1 T90       0.590700
     24 C24         -6.0260    -2.0730     1.2540 c3         1 T90      -0.195100
     25 O25         -6.7040     0.1850     1.5380 o          1 T90      -0.530100
     26 C26         -3.5590    -0.9180     0.1400 ca         1 T90      -0.038000
     27 H1           5.2900    -1.0240    -0.7160 hc         1 T90       0.059700
     28 H2           5.3110    -2.6340    -0.0010 hc         1 T90       0.059700
     29 H3           5.3410    -2.4500    -1.7560 hc         1 T90       0.059700
     30 H4           2.2040    -0.8070     1.9370 h1         1 T90       0.073200
     31 H5           3.8500    -1.3390     1.7230 h1         1 T90       0.073200
     32 H6           1.6760     1.0500    -0.2590 ha         1 T90       0.139500
     33 H7           2.3780     3.3460    -0.7870 ha         1 T90       0.131000
     34 H8           4.5210     4.2270     0.0700 ha         1 T90       0.133000
     35 H9           5.9800     2.7780     1.4540 ha         1 T90       0.131000
     36 H10          5.2930     0.4680     1.9660 ha         1 T90       0.139500
     37 H11         -0.8020    -1.0490    -1.7440 h1         1 T90       0.090200
     38 H12         -1.6680    -2.3740    -0.9590 h1         1 T90       0.090200
     39 H13          0.1040     2.8370    -1.7930 h1         1 T90       0.046033
     40 H14         -1.6250     3.1640    -2.0000 h1         1 T90       0.046033
     41 H15         -0.8750     3.3180    -0.3940 h1         1 T90       0.046033
     42 H16         -3.1520     2.8900    -0.2600 ha         1 T90       0.142000
     43 H17         -5.1890     1.9870     0.7080 ha         1 T90       0.153000
     44 H18         -5.2400    -2.5210     1.8630 hc         1 T90       0.062033
     45 H19         -6.9900    -2.3070     1.6990 hc         1 T90       0.062033
     46 H20         -5.9710    -2.5400     0.2690 hc         1 T90       0.062033
     47 H21         -3.6620    -1.9910     0.2430 ha         1 T90       0.138000
@<TRIPOS>BOND
     1     1     2 1   
     2     1    27 1   
     3     1    28 1   
     4     1    29 1   
     5     2     3 2   
     6     2     6 1   
     7     3     4 1   
     8     4     5 2   
     9     5     6 1   
    10     5    14 1   
    11     6     7 1   
    12     7     8 1   
    13     7    30 1   
    14     7    31 1   
    15     8     9 ar  
    16     8    13 ar  
    17     9    10 ar  
    18     9    32 1   
    19    10    11 ar  
    20    10    33 1   
    21    11    12 ar  
    22    11    34 1   
    23    12    13 ar  
    24    12    35 1   
    25    13    36 1   
    26    14    15 1   
    27    15    16 1   
    28    15    37 1   
    29    15    38 1   
    30    16    17 ar  
    31    16    26 ar  
    32    17    18 1   
    33    17    20 ar  
    34    18    19 1   
    35    19    39 1   
    36    19    40 1   
    37    19    41 1   
    38    20    21 ar  
    39    20    42 1   
    40    21    22 ar  
    41    21    43 1   
    42    22    23 1   
    43    22    26 ar  
    44    23    24 1   
    45    23    25 2   
    46    24    44 1   
    47    24    45 1   
    48    24    46 1   
    49    26    47 1   
@<TRIPOS>SUBSTRUCTURE
     1 T90         1 TEMP              0 ****  ****    0 ROOT
