@<TRIPOS>MOLECULE
T90
   47    49     1     0     0
SMALL
No Charge or Current Charge


@<TRIPOS>ATOM
      1 C01          4.8130    -2.4170    -0.7800 c3         1 T90      -0.125400
      2 C02          3.3560    -2.0930    -0.9410 cc         1 T90       0.400800
      3 N03          2.6120    -2.4160    -1.9940 nd         1 T90      -0.360000
      4 N04          1.3380    -1.9380    -1.7840 nd         1 T90      -0.366000
      5 C05          1.3610    -1.3420    -0.6100 cc         1 T90       0.483800
      6 N06          2.5930    -1.4070    -0.0240 na         1 T90      -0.359000
      7 C07          3.0270    -0.8540     1.2710 c3         1 T90       0.125900
      8 C08          3.8200     0.4410     1.1330 ca         1 T90      -0.117300
      9 C09          3.3000     1.5280     0.4000 ca         1 T90      -0.092000
     10 C10          4.0390     2.7170     0.2730 ca         1 T90      -0.112500
     11 C11          5.3010     2.8300     0.8790 ca         1 T90      -0.098000
     12 C12          5.8230     1.7520     1.6140 ca         1 T90      -0.112500
     13 C13          5.0850     0.5630     1.7410 ca         1 T90      -0.092000
     14 S14         -0.0110    -0.5460     0.1500 ss         1 T90      -0.360300
     15 C15         -1.3210    -0.7220    -1.1410 c3         1 T90       0.132900
     16 C16         -2.6140    -0.0620    -0.6740 ca         1 T90      -0.143300
     17 C17         -2.9270     1.2630    -1.0420 ca         1 T90       0.189100
     18 O18         -2.0370     1.9580    -1.8400 os         1 T90      -0.332100
     19 C19         -2.2650     3.3170    -2.2500 c3         1 T90       0.145900
     20 C20         -4.1300     1.8420    -0.5890 ca         1 T90      -0.220000
     21 C21         -5.0100     1.1100     0.2230 ca         1 T90      -0.004000
     22 C22         -4.7070    -0.2150     0.6020 ca         1 T90      -0.221600
     23 C23         -5.6730    -0.9810     1.4840 c          1 T90       0.590700
     24 C24         -5.3460    -2.4150     1.9050 c3         1 T90      -0.195100
     25 O25         -6.7160    -0.4640     1.8670 o          1 T90      -0.530100
     26 C26         -3.4990    -0.7910     0.1440 ca         1 T90      -0.020000
     27 H1           5.4030    -1.4990    -0.6750 hc         1 T90       0.059700
     28 H2           4.9760    -3.0340     0.1100 hc         1 T90       0.059700
     29 H3           5.1930    -2.9670    -1.6480 hc         1 T90       0.059700
     30 H4           2.1500    -0.6700     1.9040 h1         1 T90       0.073200
     31 H5           3.6360    -1.6090     1.7850 h1         1 T90       0.073200
     32 H6           2.3230     1.4550    -0.0720 ha         1 T90       0.121500
     33 H7           3.6320     3.5520    -0.2940 ha         1 T90       0.113000
     34 H8           5.8720     3.7510     0.7810 ha         1 T90       0.115000
     35 H9           6.8000     1.8390     2.0840 ha         1 T90       0.113000
     36 H10          5.5010    -0.2650     2.3120 ha         1 T90       0.121500
     37 H11         -0.9720    -0.2710    -2.0780 h1         1 T90       0.090200
     38 H12         -1.4970    -1.7890    -1.3320 h1         1 T90       0.090200
     39 H13         -1.4340     3.6710    -2.8720 h1         1 T90       0.046033
     40 H14         -3.1880     3.3980    -2.8390 h1         1 T90       0.046033
     41 H15         -2.3430     3.9800    -1.3790 h1         1 T90       0.046033
     42 H16         -4.4020     2.8590    -0.8550 ha         1 T90       0.124000
     43 H17         -5.9320     1.5830     0.5590 ha         1 T90       0.135000
     44 H18         -4.3680    -2.4300     2.3990 hc         1 T90       0.062033
     45 H19         -6.1230    -2.8540     2.5410 hc         1 T90       0.062033
     46 H20         -5.1750    -3.0210     1.0080 hc         1 T90       0.062033
     47 H21         -3.2280    -1.8080     0.4180 ha         1 T90       0.120000
@<TRIPOS>BOND
     1     1     2 1   
     2     1    27 1   
     3     1    28 1   
     4     1    29 1   
     5     2     3 2   
     6     2     6 1   
     7     3     4 1   
     8     4     5 2   
     9     5     6 1   
    10     5    14 1   
    11     6     7 1   
    12     7     8 1   
    13     7    30 1   
    14     7    31 1   
    15     8     9 ar  
    16     8    13 ar  
    17     9    10 ar  
    18     9    32 1   
    19    10    11 ar  
    20    10    33 1   
    21    11    12 ar  
    22    11    34 1   
    23    12    13 ar  
    24    12    35 1   
    25    13    36 1   
    26    14    15 1   
    27    15    16 1   
    28    15    37 1   
    29    15    38 1   
    30    16    17 ar  
    31    16    26 ar  
    32    17    18 1   
    33    17    20 ar  
    34    18    19 1   
    35    19    39 1   
    36    19    40 1   
    37    19    41 1   
    38    20    21 ar  
    39    20    42 1   
    40    21    22 ar  
    41    21    43 1   
    42    22    23 1   
    43    22    26 ar  
    44    23    24 1   
    45    23    25 2   
    46    24    44 1   
    47    24    45 1   
    48    24    46 1   
    49    26    47 1   
@<TRIPOS>SUBSTRUCTURE
     1 T90         1 TEMP              0 ****  ****    0 ROOT
