@<TRIPOS>MOLECULE
T92
   58    61     1     0     0
SMALL
No Charge or Current Charge


@<TRIPOS>ATOM
      1 C01         10.8830    -0.0070    -0.4530 c3         1 T92       0.153100
      2 N02          9.5040    -0.0310     0.0780 n3         1 T92      -0.715600
      3 C03          8.7060     1.1630    -0.3380 c6         1 T92       0.159300
      4 C04          7.2600     1.1650     0.2590 c6         1 T92       0.191800
      5 C05          8.7680    -1.2800    -0.2840 c6         1 T92       0.159300
      6 C06          7.3230    -1.3290     0.3140 c6         1 T92       0.191800
      7 N07          6.5190    -0.1080    -0.0170 nh         1 T92      -0.777400
      8 C08          5.1040    -0.1600     0.0190 ca         1 T92       0.258000
      9 C09          4.4170    -1.1370    -0.7260 ca         1 T92      -0.128000
     10 C10          3.0100    -1.2020    -0.7030 ca         1 T92      -0.122500
     11 C11          4.3520     0.7500     0.7910 ca         1 T92      -0.128000
     12 C12          2.9460     0.6840     0.8130 ca         1 T92      -0.122500
     13 C13          2.2620    -0.2860     0.0550 ca         1 T92       0.284000
     14 N14          0.8660    -0.3980     0.0570 nu         1 T92      -0.919900
     15 C15         -0.1820     0.4810     0.2760 ca         1 T92       0.430900
     16 N16          0.0850     1.7930     0.4000 nb         1 T92      -0.260000
     17 C17         -0.9710     2.6060     0.5910 ca         1 T92       0.187900
     18 C18         -2.2790     2.1010     0.6560 ca         1 T92      -0.125000
     19 Cl19        -3.6530     3.1900     0.8920 cl         1 T92      -0.187000
     20 C20         -2.4390     0.7090     0.5210 ca         1 T92       0.446900
     21 N21         -3.7130     0.1480     0.5480 nu         1 T92      -0.940900
     22 C22         -4.2460    -1.1540     0.5000 ca         1 T92       0.299000
     23 C23         -3.5050    -2.2930     0.8770 ca         1 T92      -0.100000
     24 C24         -4.0860    -3.5730     0.8300 ca         1 T92      -0.095000
     25 C25         -5.4190    -3.7280     0.4180 ca         1 T92      -0.113000
     26 C26         -6.1760    -2.6020     0.0560 ca         1 T92      -0.090000
     27 C27         -5.5940    -1.3190     0.0910 ca         1 T92       0.067100
     28 O28         -6.3480    -0.2070    -0.2420 os         1 T92      -0.363200
     29 C29         -7.0700    -0.0890    -1.4000 c          1 T92       0.590300
     30 C30         -7.8440     1.1840    -1.4200 ce         1 T92      -0.276200
     31 C31         -8.6450     1.5790    -2.4410 c2         1 T92      -0.226000
     32 O32         -7.0730    -0.9100    -2.3060 o          1 T92      -0.448000
     33 N33         -1.3890    -0.1000     0.3170 nb         1 T92      -0.316000
     34 H1          10.8820    -0.0320    -1.5510 h1         1 T92       0.031033
     35 H2          11.4080     0.9020    -0.1290 h1         1 T92       0.031033
     36 H3          11.4530    -0.8740    -0.0900 h1         1 T92       0.031033
     37 H5           9.2130     2.0880    -0.0250 h1         1 T92       0.039200
     38 H6           8.6270     1.1980    -1.4350 h1         1 T92       0.039200
     39 H7           7.3290     1.3250     1.3450 h1         1 T92       0.043450
     40 H8           6.7150     2.0220    -0.1650 h1         1 T92       0.043450
     41 H9           8.6920    -1.3680    -1.3780 h1         1 T92       0.039200
     42 H10          9.3200    -2.1630     0.0700 h1         1 T92       0.039200
     43 H11          6.8280    -2.2370    -0.0580 h1         1 T92       0.043450
     44 H12          7.4000    -1.4310     1.4070 h1         1 T92       0.043450
     45 H13          4.9720    -1.8420    -1.3370 ha         1 T92       0.115000
     46 H14          2.5030    -1.9640    -1.2900 ha         1 T92       0.129500
     47 H15          4.8520     1.5030     1.3930 ha         1 T92       0.115000
     48 H16          2.4000     1.3800     1.4410 ha         1 T92       0.129500
     49 H17          0.5290    -1.3130    -0.2390 hn         1 T92       0.510000
     50 H18         -0.7640     3.6700     0.6880 h4         1 T92       0.032100
     51 H19         -4.4410     0.8610     0.4910 hn         1 T92       0.522000
     52 H20         -2.4840    -2.1990     1.2290 ha         1 T92       0.135000
     53 H21         -3.5030    -4.4450     1.1230 ha         1 T92       0.118000
     54 H22         -5.8690    -4.7190     0.3890 ha         1 T92       0.119000
     55 H23         -7.2130    -2.7260    -0.2440 ha         1 T92       0.128000
     56 H24         -7.7290     1.8080    -0.5340 ha         1 T92       0.200000
     57 H26         -8.7780     0.9740    -3.3400 ha         1 T92       0.179500
     58 H27         -9.1920     2.5230    -2.4090 ha         1 T92       0.179500
@<TRIPOS>BOND
     1     1     2 1   
     2     1    34 1   
     3     1    35 1   
     4     1    36 1   
     5     2     3 1   
     6     2     5 1   
     7     3     4 1   
     8     3    37 1   
     9     3    38 1   
    10     4     7 1   
    11     4    39 1   
    12     4    40 1   
    13     5     6 1   
    14     5    41 1   
    15     5    42 1   
    16     6     7 1   
    17     6    43 1   
    18     6    44 1   
    19     7     8 1   
    20     8     9 ar  
    21     8    11 ar  
    22     9    10 ar  
    23     9    45 1   
    24    10    13 ar  
    25    10    46 1   
    26    11    12 ar  
    27    11    47 1   
    28    12    13 ar  
    29    12    48 1   
    30    13    14 1   
    31    14    15 1   
    32    14    49 1   
    33    15    16 ar  
    34    15    33 ar  
    35    16    17 ar  
    36    17    18 ar  
    37    17    50 1   
    38    18    19 1   
    39    18    20 ar  
    40    20    21 1   
    41    20    33 ar  
    42    21    22 1   
    43    21    51 1   
    44    22    23 ar  
    45    22    27 ar  
    46    23    24 ar  
    47    23    52 1   
    48    24    25 ar  
    49    24    53 1   
    50    25    26 ar  
    51    25    54 1   
    52    26    27 ar  
    53    26    55 1   
    54    27    28 1   
    55    28    29 1   
    56    29    30 1   
    57    29    32 2   
    58    30    31 2   
    59    30    56 1   
    60    31    57 1   
    61    31    58 1   
@<TRIPOS>SUBSTRUCTURE
     1 T92         1 TEMP              0 ****  ****    0 ROOT
