@<TRIPOS>MOLECULE
T92
   58    61     1     0     0
SMALL
bcc


@<TRIPOS>ATOM
      1 C01         10.3950     0.0180    -0.4640 c3         1 T92       0.153100
      2 N02          9.0080     0.0510    -0.0590 n3         1 T92      -0.715600
      3 C03          8.2750     1.1030    -0.7290 c6         1 T92       0.159300
      4 C04          6.8430     1.1690    -0.2300 c6         1 T92       0.191800
      5 C05          8.3550    -1.2220    -0.2790 c6         1 T92       0.159300
      6 C06          6.9250    -1.1880     0.2220 c6         1 T92       0.191800
      7 N07          6.1820    -0.1060    -0.4130 nh         1 T92      -0.639000
      8 C08          4.7920    -0.1360    -0.2470 ca         1 T92       0.119600
      9 C09          4.0700    -1.2880    -0.5870 ca         1 T92      -0.146000
     10 C10          2.7000    -1.3430    -0.4490 ca         1 T92      -0.140500
     11 C11          4.0550     0.9510     0.2210 ca         1 T92      -0.146000
     12 C12          2.6700     0.9080     0.3480 ca         1 T92      -0.140500
     13 C13          1.9670    -0.2480     0.0250 ca         1 T92       0.145600
     14 N14          0.5870    -0.4240     0.1380 nu         1 T92      -0.726300
     15 C15         -0.3970     0.4150     0.5460 ca         1 T92       0.956900
     16 N16         -0.1140     1.6740     0.8590 nb         1 T92      -0.786000
     17 C17         -1.1470     2.4210     1.2370 ca         1 T92       0.516200
     18 C18         -2.4280     1.9420     1.3190 ca         1 T92      -0.347200
     19 CL19        -3.7390     2.9550     1.8050 cl         1 T92      -0.095400
     20 C20         -2.6290     0.5840     0.9810 ca         1 T92       0.775200
     21 N21         -3.8640     0.0360     1.0530 nu         1 T92      -0.747300
     22 C22         -4.2130    -1.2930     0.7820 ca         1 T92       0.160600
     23 C23         -3.4520    -2.3830     1.1970 ca         1 T92      -0.118000
     24 C24         -3.8790    -3.6750     0.9300 ca         1 T92      -0.113000
     25 C25         -5.0790    -3.9010     0.2680 ca         1 T92      -0.131000
     26 C26         -5.8520    -2.8240    -0.1380 ca         1 T92      -0.108000
     27 C27         -5.4130    -1.5380     0.1150 ca         1 T92       0.067100
     28 O28         -6.2040    -0.4680    -0.2510 os         1 T92      -0.363200
     29 C29         -5.9230     0.1470    -1.4220 c          1 T92       0.639300
     30 C30         -6.8350     1.2840    -1.6390 ce         1 T92      -0.226200
     31 C31         -6.7560     2.0200    -2.7420 c2         1 T92      -0.126000
     32 O32         -5.0440    -0.2150    -2.1540 o          1 T92      -0.497000
     33 N33         -1.6070    -0.1500     0.5890 nb         1 T92      -0.842000
     34 H1          10.5280    -0.1830    -1.5380 h1         1 T92       0.031033
     35 H2          10.8730     0.9730    -0.2410 h1         1 T92       0.031033
     36 H3          10.9250    -0.7590     0.0880 h1         1 T92       0.031033
     37 H5           8.7560     2.0630    -0.5260 h1         1 T92       0.039200
     38 H6           8.2720     0.9650    -1.8250 h1         1 T92       0.039200
     39 H7           6.8430     1.4860     0.8240 h1         1 T92       0.043450
     40 H8           6.3160     1.9360    -0.8000 h1         1 T92       0.043450
     41 H9           8.3570    -1.5030    -1.3460 h1         1 T92       0.039200
     42 H10          8.8960    -2.0030     0.2610 h1         1 T92       0.039200
     43 H11          6.4600    -2.1460    -0.0040 h1         1 T92       0.043450
     44 H12          6.9210    -1.0720     1.3170 h1         1 T92       0.043450
     45 H13          4.5820    -2.1550    -0.9830 ha         1 T92       0.133000
     46 H14          2.1820    -2.2550    -0.7280 ha         1 T92       0.147500
     47 H15          4.5490     1.8680     0.5130 ha         1 T92       0.133000
     48 H16          2.1520     1.7780     0.7160 ha         1 T92       0.147500
     49 H17          0.2510    -1.3460    -0.0970 hn         1 T92       0.454800
     50 H18         -0.9380     3.4550     1.4900 h4         1 T92       0.032100
     51 H19         -4.6170     0.6550     1.3100 hn         1 T92       0.466800
     52 H20         -2.5290    -2.2210     1.7320 ha         1 T92       0.153000
     53 H21         -3.2750    -4.5100     1.2570 ha         1 T92       0.136000
     54 H22         -5.4150    -4.9090     0.0710 ha         1 T92       0.137000
     55 H23         -6.7920    -2.9770    -0.6510 ha         1 T92       0.146000
     56 H24         -7.5690     1.4950    -0.8710 ha         1 T92       0.150000
     57 H26         -6.0290     1.8180    -3.5180 ha         1 T92       0.129500
     58 H27         -7.4250     2.8540    -2.9020 ha         1 T92       0.129500
@<TRIPOS>BOND
     1     1     2 1   
     2     1    34 1   
     3     1    35 1   
     4     1    36 1   
     5     2     3 1   
     6     2     5 1   
     7     3     4 1   
     8     3    37 1   
     9     3    38 1   
    10     4     7 1   
    11     4    39 1   
    12     4    40 1   
    13     5     6 1   
    14     5    41 1   
    15     5    42 1   
    16     6     7 1   
    17     6    43 1   
    18     6    44 1   
    19     7     8 1   
    20     8     9 ar  
    21     8    11 ar  
    22     9    10 ar  
    23     9    45 1   
    24    10    13 ar  
    25    10    46 1   
    26    11    12 ar  
    27    11    47 1   
    28    12    13 ar  
    29    12    48 1   
    30    13    14 1   
    31    14    15 1   
    32    14    49 1   
    33    15    16 ar  
    34    15    33 ar  
    35    16    17 ar  
    36    17    18 ar  
    37    17    50 1   
    38    18    19 1   
    39    18    20 ar  
    40    20    21 1   
    41    20    33 ar  
    42    21    22 1   
    43    21    51 1   
    44    22    23 ar  
    45    22    27 ar  
    46    23    24 ar  
    47    23    52 1   
    48    24    25 ar  
    49    24    53 1   
    50    25    26 ar  
    51    25    54 1   
    52    26    27 ar  
    53    26    55 1   
    54    27    28 1   
    55    28    29 1   
    56    29    30 1   
    57    29    32 2   
    58    30    31 2   
    59    30    56 1   
    60    31    57 1   
    61    31    58 1   
@<TRIPOS>SUBSTRUCTURE
     1 T92         1 TEMP              0 ****  ****    0 ROOT
