@<TRIPOS>MOLECULE
T94
   41    41     1     0     0
SMALL
No Charge or Current Charge


@<TRIPOS>ATOM
      1 C1          -3.8360    -1.3760     0.0160 ca         1 T94       0.158100
      2 C2          -4.9430    -0.5010     0.0640 ca         1 T94      -0.086900
      3 C3          -4.7120     0.8850     0.0570 ca         1 T94       0.158100
      4 C4          -3.4080     1.3990     0.0270 ca         1 T94      -0.137500
      5 C5          -2.2890     0.5320     0.0020 ca         1 T94      -0.103600
      6 C6          -2.5280    -0.8650    -0.0060 ca         1 T94      -0.137500
      7 O7          -5.7810     1.7260     0.0910 oh         1 T94      -0.525100
      8 O8          -6.2380    -0.9720     0.1350 oh         1 T94      -0.564100
      9 O9          -4.0220    -2.7270    -0.0420 oh         1 T94      -0.525100
     10 C10         -0.8830     1.1140    -0.0240 c          1 T94       0.580700
     11 C11          0.3290     0.1600    -0.0250 c3         1 T94      -0.174400
     12 C12          1.7250     0.8320    -0.0150 c3         1 T94      -0.067400
     13 C13          2.8820    -0.1910    -0.0130 c3         1 T94      -0.075400
     14 C14          4.2760     0.4740    -0.0040 c3         1 T94      -0.075400
     15 C15          5.4330    -0.5490    -0.0020 c3         1 T94      -0.074400
     16 C16          6.8270     0.1150     0.0070 c3         1 T94      -0.076400
     17 C17          7.9840    -0.9080     0.0090 c3         1 T94      -0.074400
     18 C18          9.3750    -0.2450     0.0180 c3         1 T94      -0.088100
     19 O19         -0.7140     2.3290    -0.0460 o          1 T94      -0.514100
     20 H1          -3.2700     2.4780     0.0290 ha         1 T94       0.145000
     21 H2          -1.7060    -1.5750    -0.0410 ha         1 T94       0.145000
     22 H3          -6.5690     1.1380     0.1000 ho         1 T94       0.478000
     23 H4          -6.2800    -1.7380     0.7540 ho         1 T94       0.455000
     24 H5          -4.8980    -2.8940    -0.4500 ho         1 T94       0.478000
     25 H6           0.2100    -0.5310     0.8180 hc         1 T94       0.064200
     26 H7           0.2160    -0.5190    -0.8780 hc         1 T94       0.064200
     27 H8           1.8200     1.4810    -0.8950 hc         1 T94       0.052700
     28 H9           1.8110     1.4750     0.8700 hc         1 T94       0.052700
     29 H10          2.7870    -0.8400     0.8660 hc         1 T94       0.036700
     30 H11          2.7950    -0.8340    -0.8980 hc         1 T94       0.036700
     31 H12          4.3710     1.1230    -0.8830 hc         1 T94       0.039700
     32 H13          4.3630     1.1170     0.8800 hc         1 T94       0.039700
     33 H14          5.3380    -1.1990     0.8770 hc         1 T94       0.036700
     34 H15          5.3460    -1.1930    -0.8870 hc         1 T94       0.036700
     35 H16          6.9220     0.7650    -0.8720 hc         1 T94       0.037700
     36 H17          6.9140     0.7580     0.8920 hc         1 T94       0.037700
     37 H18          7.8940    -1.5580     0.8880 hc         1 T94       0.036700
     38 H19          7.9020    -1.5520    -0.8760 hc         1 T94       0.036700
     39 H20          9.5110     0.3860    -0.8690 hc         1 T94       0.031367
     40 H21          9.5020     0.3790     0.9100 hc         1 T94       0.031367
     41 H22         10.1620    -1.0090     0.0190 hc         1 T94       0.031367
@<TRIPOS>BOND
     1     1     2 ar  
     2     1     6 ar  
     3     1     9 1   
     4     2     3 ar  
     5     2     8 1   
     6     3     4 ar  
     7     3     7 1   
     8     4     5 ar  
     9     4    20 1   
    10     5     6 ar  
    11     5    10 1   
    12     6    21 1   
    13     7    22 1   
    14     8    23 1   
    15     9    24 1   
    16    10    11 1   
    17    10    19 2   
    18    11    12 1   
    19    11    25 1   
    20    11    26 1   
    21    12    13 1   
    22    12    27 1   
    23    12    28 1   
    24    13    14 1   
    25    13    29 1   
    26    13    30 1   
    27    14    15 1   
    28    14    31 1   
    29    14    32 1   
    30    15    16 1   
    31    15    33 1   
    32    15    34 1   
    33    16    17 1   
    34    16    35 1   
    35    16    36 1   
    36    17    18 1   
    37    17    37 1   
    38    17    38 1   
    39    18    39 1   
    40    18    40 1   
    41    18    41 1   
@<TRIPOS>SUBSTRUCTURE
     1 T94         1 TEMP              0 ****  ****    0 ROOT
