@<TRIPOS>MOLECULE
T94
   41    41     1     0     0
SMALL
abcg2


@<TRIPOS>ATOM
      1 C1          -3.7380    -1.3960    -0.0800 ca         1 T94       0.158100
      2 C2          -4.8120    -0.5080    -0.0320 ca         1 T94      -0.086900
      3 C3          -4.5820     0.8670     0.0300 ca         1 T94       0.158100
      4 C4          -3.2830     1.3500     0.0590 ca         1 T94      -0.137500
      5 C5          -2.2110     0.4610     0.0260 ca         1 T94      -0.103600
      6 C6          -2.4360    -0.9110    -0.0490 ca         1 T94      -0.137500
      7 O7          -5.6030     1.7400     0.0580 oh         1 T94      -0.525100
      8 O8          -6.0940    -0.9830    -0.1020 oh         1 T94      -0.564100
      9 O9          -3.9330    -2.7220    -0.1590 oh         1 T94      -0.525100
     10 C10         -0.8280     1.0240     0.0610 c          1 T94       0.580700
     11 C11          0.3420     0.0710     0.0350 c3         1 T94      -0.174400
     12 C12          1.7010     0.7530     0.0500 c3         1 T94      -0.067400
     13 C13          2.8470    -0.2510     0.0330 c3         1 T94      -0.075400
     14 C14          4.2130     0.4220     0.0230 c3         1 T94      -0.075400
     15 C15          5.3760    -0.5620     0.0120 c3         1 T94      -0.074400
     16 C16          6.7370     0.1230    -0.0110 c3         1 T94      -0.076400
     17 C17          7.9080    -0.8510    -0.0180 c3         1 T94      -0.074400
     18 C18          9.2580    -0.1470    -0.0500 c3         1 T94      -0.088100
     19 O19         -0.6610     2.2250     0.1120 o          1 T94      -0.514100
     20 H1          -3.1150     2.4180     0.1100 ha         1 T94       0.145000
     21 H2          -1.6220    -1.6220    -0.0840 ha         1 T94       0.145000
     22 H3          -6.4430     1.2700    -0.0140 ho         1 T94       0.478000
     23 H4          -6.4300    -1.1760     0.7830 ho         1 T94       0.455000
     24 H5          -4.8750    -2.9130    -0.2610 ho         1 T94       0.478000
     25 H6           0.2480    -0.6100     0.8890 hc         1 T94       0.064200
     26 H7           0.2500    -0.5680    -0.8500 hc         1 T94       0.064200
     27 H8           1.7900     1.4180    -0.8120 hc         1 T94       0.052700
     28 H9           1.7890     1.3860     0.9360 hc         1 T94       0.052700
     29 H10          2.7700    -0.9100     0.9050 hc         1 T94       0.036700
     30 H11          2.7550    -0.8990    -0.8460 hc         1 T94       0.036700
     31 H12          4.2870     1.0780    -0.8520 hc         1 T94       0.039700
     32 H13          4.3020     1.0770     0.8970 hc         1 T94       0.039700
     33 H14          5.3100    -1.2130     0.8910 hc         1 T94       0.036700
     34 H15          5.2860    -1.2210    -0.8600 hc         1 T94       0.036700
     35 H16          6.8010     0.7720    -0.8930 hc         1 T94       0.037700
     36 H17          6.8240     0.7870     0.8570 hc         1 T94       0.037700
     37 H18          7.8490    -1.4940     0.8650 hc         1 T94       0.036700
     38 H19          7.8200    -1.5160    -0.8830 hc         1 T94       0.036700
     39 H20          9.3550     0.4750    -0.9420 hc         1 T94       0.031367
     40 H21          9.3830     0.5040     0.8180 hc         1 T94       0.031367
     41 H22         10.0850    -0.8580    -0.0510 hc         1 T94       0.031367
@<TRIPOS>BOND
     1     1     2 ar  
     2     1     6 ar  
     3     1     9 1   
     4     2     3 ar  
     5     2     8 1   
     6     3     4 ar  
     7     3     7 1   
     8     4     5 ar  
     9     4    20 1   
    10     5     6 ar  
    11     5    10 1   
    12     6    21 1   
    13     7    22 1   
    14     8    23 1   
    15     9    24 1   
    16    10    11 1   
    17    10    19 2   
    18    11    12 1   
    19    11    25 1   
    20    11    26 1   
    21    12    13 1   
    22    12    27 1   
    23    12    28 1   
    24    13    14 1   
    25    13    29 1   
    26    13    30 1   
    27    14    15 1   
    28    14    31 1   
    29    14    32 1   
    30    15    16 1   
    31    15    33 1   
    32    15    34 1   
    33    16    17 1   
    34    16    35 1   
    35    16    36 1   
    36    17    18 1   
    37    17    37 1   
    38    17    38 1   
    39    18    39 1   
    40    18    40 1   
    41    18    41 1   
@<TRIPOS>SUBSTRUCTURE
     1 T94         1 TEMP              0 ****  ****    0 ROOT
