@<TRIPOS>MOLECULE
T95
   81    85     1     0     0
SMALL
No Charge or Current Charge


@<TRIPOS>ATOM
      1 O12         -5.1200     0.5490    -1.4410 o          1 T95      -0.564100
      2 C7          -4.1540     0.9840    -0.8290 c          1 T95       0.644700
      3 N8          -4.2350     2.1330    -0.0590 ns         1 T95      -0.182000
      4 C9          -5.3200     3.0280     0.1310 ca         1 T95      -0.051000
      5 C33         -5.7860     3.2610     1.4480 ca         1 T95      -0.060300
      6 C35         -5.1550     2.5470     2.6410 c3         1 T95      -0.045800
      7 C32         -6.8610     4.1430     1.6630 ca         1 T95      -0.112500
      8 C31         -7.4650     4.8020     0.5830 ca         1 T95      -0.101000
      9 C30         -6.9920     4.5910    -0.7200 ca         1 T95      -0.112500
     10 C29         -5.9160     3.7140    -0.9600 ca         1 T95      -0.060300
     11 C34         -5.4070     3.5690    -2.3930 c3         1 T95      -0.045800
     12 C5          -2.7970     0.3380    -0.8750 ca         1 T95      -0.343600
     13 C6          -1.6500     1.0310    -0.4420 ca         1 T95       0.183900
     14 N1          -0.4300     0.4720    -0.4690 nb         1 T95      -0.259000
     15 C4          -2.6000    -0.9840    -1.3250 ca         1 T95       0.442300
     16 O10         -3.6680    -1.7610    -1.7060 os         1 T95      -0.323400
     17 C11         -3.8970    -3.0100    -1.1630 ca         1 T95       0.067100
     18 C25         -3.7830    -3.2560     0.2320 ca         1 T95       0.157100
     19 O26         -3.4440    -2.2120     1.0760 os         1 T95      -0.329100
     20 C27         -3.2000    -2.3920     2.4780 c3         1 T95       0.165600
     21 C28         -2.7620    -1.0300     3.0390 c3         1 T95      -0.095100
     22 C24         -4.0330    -4.5570     0.7270 ca         1 T95      -0.198000
     23 C23         -4.3980    -5.5910    -0.1520 ca         1 T95      -0.069000
     24 C22         -4.5230    -5.3370    -1.5270 ca         1 T95      -0.144000
     25 C21         -4.2770    -4.0490    -2.0300 ca         1 T95      -0.069000
     26 N3          -1.3720    -1.5390    -1.3550 nb         1 T95      -0.328000
     27 C2          -0.3550    -0.7820    -0.9380 ca         1 T95       0.432900
     28 N13          0.8740    -1.4200    -0.9590 nu         1 T95      -0.924900
     29 C14          2.1960    -1.0240    -0.7130 ca         1 T95       0.263000
     30 C19          3.1300    -1.9960    -0.3140 ca         1 T95      -0.095500
     31 C18          4.4710    -1.6460    -0.0670 ca         1 T95      -0.146000
     32 C17          4.9090    -0.3180    -0.2240 ca         1 T95       0.285000
     33 C16          3.9760     0.6540    -0.6370 ca         1 T95      -0.146000
     34 C15          2.6350     0.3050    -0.8840 ca         1 T95      -0.095500
     35 N20          6.2610     0.0130     0.0310 nh         1 T95      -0.784400
     36 C40          6.6610     1.4010     0.4270 c6         1 T95       0.196300
     37 C39          8.0400     1.4410     1.1630 c6         1 T95       0.159300
     38 N38          9.1330     0.7670     0.3970 n3         1 T95      -0.702600
     39 C37          8.7260    -0.6380     0.0780 c6         1 T95       0.159300
     40 C36          7.3580    -0.7220    -0.6770 c6         1 T95       0.196300
     41 C41         10.4510     0.8680     1.0900 c3         1 T95       0.168800
     42 C42         11.6950     0.3390     0.3110 c3         1 T95       0.165600
     43 O43         11.9160     1.0730    -0.9070 oh         1 T95      -0.642000
     44 HN8         -3.3970     2.3670     0.4570 hn         1 T95       0.154000
     45 H35         -4.0760     2.7340     2.6910 hc         1 T95       0.044533
     46 H35A        -5.5870     2.8810     3.5920 hc         1 T95       0.044533
     47 H35B        -5.3090     1.4640     2.5740 hc         1 T95       0.044533
     48 H32         -7.2320     4.3200     2.6700 ha         1 T95       0.112500
     49 H31         -8.2950     5.4830     0.7570 ha         1 T95       0.112000
     50 H30         -7.4600     5.1200    -1.5480 ha         1 T95       0.112500
     51 H34         -5.8750     2.7130    -2.8930 hc         1 T95       0.044533
     52 H34A        -5.6370     4.4590    -2.9900 hc         1 T95       0.044533
     53 H34B        -4.3200     3.4350    -2.4300 hc         1 T95       0.044533
     54 H6          -1.6900     2.0540    -0.0730 h4         1 T95       0.024100
     55 H27         -4.1090    -2.7290     2.9940 h1         1 T95       0.032200
     56 H27A        -2.4020    -3.1280     2.6440 h1         1 T95       0.032200
     57 H28         -2.5570    -1.1090     4.1130 hc         1 T95       0.049700
     58 H28A        -1.8500    -0.6830     2.5380 hc         1 T95       0.049700
     59 H28B        -3.5480    -0.2810     2.8920 hc         1 T95       0.049700
     60 H24         -3.9550    -4.7810     1.7870 ha         1 T95       0.118000
     61 H23         -4.5910    -6.5900     0.2350 ha         1 T95       0.113000
     62 H22         -4.8120    -6.1390    -2.2030 ha         1 T95       0.119000
     63 H21         -4.3740    -3.8540    -3.0950 ha         1 T95       0.127000
     64 HN13         0.7680    -2.4210    -1.1210 hn         1 T95       0.513000
     65 H19          2.8160    -3.0280    -0.1820 ha         1 T95       0.121000
     66 H18          5.1680    -2.4120     0.2600 ha         1 T95       0.116000
     67 H16          4.2860     1.6840    -0.7870 ha         1 T95       0.116000
     68 H15          1.9500     1.0730    -1.2280 ha         1 T95       0.121000
     69 H40          6.7220     2.0400    -0.4670 h1         1 T95       0.045200
     70 H40A         5.9040     1.8400     1.0930 h1         1 T95       0.045200
     71 H39          8.3010     2.4920     1.3530 h1         1 T95       0.038450
     72 H39A         7.9210     0.9610     2.1460 h1         1 T95       0.038450
     73 H37          9.4840    -1.1290    -0.5470 h1         1 T95       0.038450
     74 H37A         8.6460    -1.2250     1.0050 h1         1 T95       0.038450
     75 H36          7.1010    -1.7830    -0.8040 h1         1 T95       0.045200
     76 H36A         7.4890    -0.3010    -1.6850 h1         1 T95       0.045200
     77 H41         10.6480     1.9180     1.3430 h1         1 T95       0.038200
     78 H41A        10.4020     0.3240     2.0440 h1         1 T95       0.038200
     79 H42         12.5740     0.4320     0.9620 h1         1 T95       0.015200
     80 H42A        11.5670    -0.7290     0.0940 h1         1 T95       0.015200
     81 HO43        12.6820     0.6540    -1.3560 ho         1 T95       0.436000
@<TRIPOS>BOND
     1     1     2 2   
     2     2     3 1   
     3     2    12 1   
     4     3     4 1   
     5     3    44 1   
     6     4     5 ar  
     7     4    10 ar  
     8     5     6 1   
     9     5     7 ar  
    10     6    45 1   
    11     6    46 1   
    12     6    47 1   
    13     7     8 ar  
    14     7    48 1   
    15     8     9 ar  
    16     8    49 1   
    17     9    10 ar  
    18     9    50 1   
    19    10    11 1   
    20    11    51 1   
    21    11    52 1   
    22    11    53 1   
    23    12    13 ar  
    24    12    15 ar  
    25    13    14 ar  
    26    13    54 1   
    27    14    27 ar  
    28    15    16 1   
    29    15    26 ar  
    30    16    17 1   
    31    17    18 ar  
    32    17    25 ar  
    33    18    19 1   
    34    18    22 ar  
    35    19    20 1   
    36    20    21 1   
    37    20    55 1   
    38    20    56 1   
    39    21    57 1   
    40    21    58 1   
    41    21    59 1   
    42    22    23 ar  
    43    22    60 1   
    44    23    24 ar  
    45    23    61 1   
    46    24    25 ar  
    47    24    62 1   
    48    25    63 1   
    49    26    27 ar  
    50    27    28 1   
    51    28    29 1   
    52    28    64 1   
    53    29    30 ar  
    54    29    34 ar  
    55    30    31 ar  
    56    30    65 1   
    57    31    32 ar  
    58    31    66 1   
    59    32    33 ar  
    60    32    35 1   
    61    33    34 ar  
    62    33    67 1   
    63    34    68 1   
    64    35    36 1   
    65    35    40 1   
    66    36    37 1   
    67    36    69 1   
    68    36    70 1   
    69    37    38 1   
    70    37    71 1   
    71    37    72 1   
    72    38    39 1   
    73    38    41 1   
    74    39    40 1   
    75    39    73 1   
    76    39    74 1   
    77    40    75 1   
    78    40    76 1   
    79    41    42 1   
    80    41    77 1   
    81    41    78 1   
    82    42    43 1   
    83    42    79 1   
    84    42    80 1   
    85    43    81 1   
@<TRIPOS>SUBSTRUCTURE
     1 T95         1 TEMP              0 ****  ****    0 ROOT
