@<TRIPOS>MOLECULE
T95
   81    85     1     0     0
SMALL
abcg2


@<TRIPOS>ATOM
      1 O12         -4.9900     0.8910     0.7980 o          1 T95      -0.564100
      2 C7          -4.0300     1.3730     0.2230 c          1 T95       0.644700
      3 N8          -4.0240     2.6300    -0.2730 ns         1 T95      -0.182000
      4 C9          -5.1250     3.5140    -0.1260 ca         1 T95      -0.051000
      5 C33         -5.1020     4.4520     0.9080 ca         1 T95      -0.060300
      6 C35         -3.9510     4.5050     1.8690 c3         1 T95      -0.045800
      7 C32         -6.1780     5.3280     1.0280 ca         1 T95      -0.112500
      8 C31         -7.2440     5.2630     0.1440 ca         1 T95      -0.101000
      9 C30         -7.2490     4.3230    -0.8750 ca         1 T95      -0.112500
     10 C29         -6.1890     3.4330    -1.0270 ca         1 T95      -0.060300
     11 C34         -6.1900     2.4140    -2.1270 c3         1 T95      -0.045800
     12 C5          -2.7560     0.6370     0.0300 ca         1 T95      -0.343600
     13 C6          -1.5210     1.2140     0.2710 ca         1 T95       0.183900
     14 N1          -0.3670     0.5750     0.1720 nb         1 T95      -0.259000
     15 C4          -2.6950    -0.7160    -0.3480 ca         1 T95       0.442300
     16 O10         -3.8390    -1.3300    -0.6470 os         1 T95      -0.323400
     17 C11         -3.8100    -2.6650    -0.9930 ca         1 T95       0.067100
     18 C25         -3.6160    -3.6220     0.0090 ca         1 T95       0.157100
     19 O26         -3.4180    -3.1490     1.2460 os         1 T95      -0.329100
     20 C27         -3.0310    -4.0530     2.2730 c3         1 T95       0.165600
     21 C28         -2.7630    -3.2480     3.5220 c3         1 T95      -0.095100
     22 C24         -3.6430    -4.9660    -0.3490 ca         1 T95      -0.198000
     23 C23         -3.8690    -5.3320    -1.6730 ca         1 T95      -0.069000
     24 C22         -4.0680    -4.3740    -2.6510 ca         1 T95      -0.144000
     25 C21         -4.0340    -3.0270    -2.3030 ca         1 T95      -0.069000
     26 N3          -1.5700    -1.3650    -0.4730 nb         1 T95      -0.328000
     27 C2          -0.4400    -0.7010    -0.1980 ca         1 T95       0.432900
     28 N13          0.6900    -1.4290    -0.3150 nu         1 T95      -0.924900
     29 C14          2.0170    -1.0080    -0.1350 ca         1 T95       0.263000
     30 C19          2.9220    -1.8930     0.4490 ca         1 T95      -0.095500
     31 C18          4.2530    -1.5560     0.6090 ca         1 T95      -0.146000
     32 C17          4.7430    -0.3080     0.1960 ca         1 T95       0.285000
     33 C16          3.8260     0.5660    -0.3980 ca         1 T95      -0.146000
     34 C15          2.4910     0.2250    -0.5620 ca         1 T95      -0.095500
     35 N20          6.0780     0.0370     0.4070 nh         1 T95      -0.784400
     36 C40          6.4910     1.3760     0.0420 c6         1 T95       0.196300
     37 C39          7.8510     1.6960     0.6320 c6         1 T95       0.159300
     38 N38          8.8460     0.7310     0.2150 n3         1 T95      -0.702600
     39 C37          8.4360    -0.5910     0.6400 c6         1 T95       0.159300
     40 C36          7.0860    -0.9530     0.0520 c6         1 T95       0.196300
     41 C41         10.1640     1.0970     0.6950 c3         1 T95       0.168800
     42 C42         11.2990     0.3230     0.0570 c3         1 T95       0.165600
     43 O43         11.3100     0.5640    -1.3310 oh         1 T95      -0.642000
     44 HN8         -3.2450     2.9300    -0.8410 hn         1 T95       0.154000
     45 H35         -2.9950     4.6140     1.3550 hc         1 T95       0.044533
     46 H35A        -4.0570     5.3420     2.5560 hc         1 T95       0.044533
     47 H35B        -3.8910     3.5920     2.4650 hc         1 T95       0.044533
     48 H32         -6.1790     6.0640     1.8220 ha         1 T95       0.112500
     49 H31         -8.0750     5.9480     0.2500 ha         1 T95       0.112000
     50 H30         -8.0840     4.2790    -1.5630 ha         1 T95       0.112500
     51 H34         -6.2550     1.4000    -1.7290 hc         1 T95       0.044533
     52 H34A        -7.0390     2.5610    -2.7930 hc         1 T95       0.044533
     53 H34B        -5.2810     2.4650    -2.7280 hc         1 T95       0.044533
     54 H6          -1.4620     2.2500     0.5890 h4         1 T95       0.024100
     55 H27         -3.8240    -4.7860     2.4510 h1         1 T95       0.032200
     56 H27A        -2.1330    -4.6010     1.9690 h1         1 T95       0.032200
     57 H28         -2.4460    -3.9180     4.3210 hc         1 T95       0.049700
     58 H28A        -1.9710    -2.5180     3.3600 hc         1 T95       0.049700
     59 H28B        -3.6580    -2.7250     3.8590 hc         1 T95       0.049700
     60 H24         -3.4970    -5.7390     0.3930 ha         1 T95       0.118000
     61 H23         -3.8910    -6.3830    -1.9280 ha         1 T95       0.113000
     62 H22         -4.2450    -4.6620    -3.6780 ha         1 T95       0.119000
     63 H21         -4.1800    -2.2570    -3.0500 ha         1 T95       0.127000
     64 HN13         0.5420    -2.4120    -0.4840 hn         1 T95       0.513000
     65 H19          2.5800    -2.8610     0.7960 ha         1 T95       0.121000
     66 H18          4.9050    -2.2710     1.0910 ha         1 T95       0.116000
     67 H16          4.1410     1.5310    -0.7690 ha         1 T95       0.116000
     68 H15          1.8300     0.9320    -1.0430 ha         1 T95       0.121000
     69 H40          6.5260     1.5090    -1.0500 h1         1 T95       0.045200
     70 H40A         5.7770     2.0990     0.4390 h1         1 T95       0.045200
     71 H39          8.1470     2.6900     0.2910 h1         1 T95       0.038450
     72 H39A         7.7620     1.7430     1.7320 h1         1 T95       0.038450
     73 H37          9.1580    -1.3350     0.3010 h1         1 T95       0.038450
     74 H37A         8.3840    -0.6650     1.7410 h1         1 T95       0.038450
     75 H36          6.8030    -1.9320     0.4300 h1         1 T95       0.045200
     76 H36A         7.1770    -1.0390    -1.0410 h1         1 T95       0.045200
     77 H41         10.3130     2.1610     0.4890 h1         1 T95       0.038200
     78 H41A        10.2520     0.9790     1.7890 h1         1 T95       0.038200
     79 H42         12.2280     0.6550     0.5370 h1         1 T95       0.015200
     80 H42A        11.2040    -0.7480     0.2790 h1         1 T95       0.015200
     81 HO43        12.0720     0.1110    -1.7040 ho         1 T95       0.436000
@<TRIPOS>BOND
     1     1     2 2   
     2     2     3 1   
     3     2    12 1   
     4     3     4 1   
     5     3    44 1   
     6     4     5 ar  
     7     4    10 ar  
     8     5     6 1   
     9     5     7 ar  
    10     6    45 1   
    11     6    46 1   
    12     6    47 1   
    13     7     8 ar  
    14     7    48 1   
    15     8     9 ar  
    16     8    49 1   
    17     9    10 ar  
    18     9    50 1   
    19    10    11 1   
    20    11    51 1   
    21    11    52 1   
    22    11    53 1   
    23    12    13 ar  
    24    12    15 ar  
    25    13    14 ar  
    26    13    54 1   
    27    14    27 ar  
    28    15    16 1   
    29    15    26 ar  
    30    16    17 1   
    31    17    18 ar  
    32    17    25 ar  
    33    18    19 1   
    34    18    22 ar  
    35    19    20 1   
    36    20    21 1   
    37    20    55 1   
    38    20    56 1   
    39    21    57 1   
    40    21    58 1   
    41    21    59 1   
    42    22    23 ar  
    43    22    60 1   
    44    23    24 ar  
    45    23    61 1   
    46    24    25 ar  
    47    24    62 1   
    48    25    63 1   
    49    26    27 ar  
    50    27    28 1   
    51    28    29 1   
    52    28    64 1   
    53    29    30 ar  
    54    29    34 ar  
    55    30    31 ar  
    56    30    65 1   
    57    31    32 ar  
    58    31    66 1   
    59    32    33 ar  
    60    32    35 1   
    61    33    34 ar  
    62    33    67 1   
    63    34    68 1   
    64    35    36 1   
    65    35    40 1   
    66    36    37 1   
    67    36    69 1   
    68    36    70 1   
    69    37    38 1   
    70    37    71 1   
    71    37    72 1   
    72    38    39 1   
    73    38    41 1   
    74    39    40 1   
    75    39    73 1   
    76    39    74 1   
    77    40    75 1   
    78    40    76 1   
    79    41    42 1   
    80    41    77 1   
    81    41    78 1   
    82    42    43 1   
    83    42    79 1   
    84    42    80 1   
    85    43    81 1   
@<TRIPOS>SUBSTRUCTURE
     1 T95         1 TEMP              0 ****  ****    0 ROOT
