@<TRIPOS>MOLECULE
T96
   47    50     1     0     0
SMALL
No Charge or Current Charge


@<TRIPOS>ATOM
      1 C1         -34.0020    -1.3520    16.1610 c5         1 T96       0.133300
      2 C2         -33.1500    -0.2510    14.2690 c5         1 T96       0.319300
      3 C3         -31.1760    -0.7480    12.7340 cc         1 T96       0.416700
      4 C5         -31.2170     1.2660    13.6850 ca         1 T96       0.141500
      5 C6         -30.5580     3.3800    14.2440 ca         1 T96       0.173900
      6 C7         -29.2270     2.2320    12.7660 ca         1 T96       0.434900
      7 C8         -27.9260     1.6830    10.6490 c3         1 T96       0.283100
      8 C11        -30.8730     2.6310     8.3760 ca         1 T96      -0.171500
      9 C10        -30.0630     1.9250     9.2830 ca         1 T96      -0.059000
     10 C9         -28.8080     2.4410     9.6630 ca         1 T96      -0.150300
     11 C12        -30.4380     3.8520     7.8430 ca         1 T96       0.280000
     12 C15        -33.4600    -2.6220    16.8870 c3         1 T96       0.147600
     13 C16        -33.9520    -1.4900    13.7570 c5         1 T96       0.140300
     14 N          -31.8920     0.0820    13.6010 na         1 T96      -0.296300
     15 C          -34.9540    -1.6270    14.9370 c5         1 T96       0.111300
     16 O          -36.0020    -0.6420    14.8120 oh         1 T96      -0.693000
     17 C13        -29.1900     4.3700     8.2170 ca         1 T96      -0.171500
     18 C14        -28.3750     3.6690     9.1240 ca         1 T96      -0.059000
     19 C4         -30.1200     1.1320    12.8670 ca         1 T96      -0.075600
     20 N1         -30.0740    -0.1330    12.2670 nd         1 T96      -0.555100
     21 N2         -31.4660     2.3880    14.3860 nb         1 T96      -0.211000
     22 N3         -29.4460     3.3560    13.4730 nb         1 T96      -0.302000
     23 N5         -31.2280     4.5360     6.9600 nv         1 T96      -1.070000
     24 O1         -32.8880    -0.5660    15.6510 os         1 T96      -0.451000
     25 O2         -32.8740    -3.5730    15.9750 oh         1 T96      -0.738000
     26 O3         -34.6470    -1.2800    12.5180 oh         1 T96      -0.679000
     27 H1         -34.5230    -0.7480    16.9170 h1         1 T96       0.073700
     28 H2         -33.7810     0.6470    14.2100 h2         1 T96       0.125700
     29 H3         -31.4930    -1.7540    12.4890 h5         1 T96       0.076800
     30 H4         -27.5150     3.0960    12.1620 hn         1 T96       0.495000
     31 H5         -30.7400     4.2920    14.8110 h5         1 T96       0.046100
     32 H6         -28.1830     0.6150    10.6430 h1         1 T96       0.068200
     33 H7         -26.8800     1.7590    10.3190 h1         1 T96       0.068200
     34 H9         -30.4120     0.9780     9.6900 ha         1 T96       0.112000
     35 H10        -34.2950    -3.0890    17.4280 h1         1 T96       0.038700
     36 H11        -32.7240    -2.3050    17.6380 h1         1 T96       0.038700
     37 H12        -33.3040    -2.3740    13.6910 h1         1 T96       0.067700
     38 H13        -35.3820    -2.6390    14.9790 h1         1 T96       0.058700
     39 H14        -36.6580    -0.8120    15.5310 ho         1 T96       0.500000
     40 H15        -28.8460     5.3170     7.8090 ha         1 T96       0.111000
     41 H16        -27.4090     4.0810     9.4090 ha         1 T96       0.112000
     42 H17        -30.8580     5.3500     6.4720 hn         1 T96       0.442500
     43 H18        -32.0690     4.1010     6.5850 hn         1 T96       0.442500
     44 H19        -32.4910    -4.3000    16.5220 ho         1 T96       0.512000
     45 H20        -35.5100    -0.8860    12.8000 ho         1 T96       0.510000
     46 N4         -28.0680     2.2570    11.9950 nu         1 T96      -0.909100
     47 H8         -31.8390     2.2230     8.0910 ha         1 T96       0.111000
@<TRIPOS>BOND
     1     1    12 1   
     2     1    15 1   
     3     1    24 1   
     4     1    27 1   
     5     2    13 1   
     6     2    14 1   
     7     2    24 1   
     8     2    28 1   
     9     3    14 1   
    10     3    20 2   
    11     3    29 1   
    12     4    14 1   
    13     4    19 ar  
    14     4    21 ar  
    15     5    21 ar  
    16     5    22 ar  
    17     5    31 1   
    18     6    19 ar  
    19     6    22 ar  
    20     6    46 1   
    21     7    10 1   
    22     7    32 1   
    23     7    33 1   
    24     7    46 1   
    25     8     9 ar  
    26     8    11 ar  
    27     8    47 1   
    28     9    10 ar  
    29     9    34 1   
    30    10    18 ar  
    31    11    17 ar  
    32    11    23 1   
    33    12    25 1   
    34    12    35 1   
    35    12    36 1   
    36    13    15 1   
    37    13    26 1   
    38    13    37 1   
    39    15    16 1   
    40    15    38 1   
    41    16    39 1   
    42    17    18 ar  
    43    17    40 1   
    44    18    41 1   
    45    19    20 1   
    46    23    42 1   
    47    23    43 1   
    48    25    44 1   
    49    26    45 1   
    50    30    46 1   
@<TRIPOS>SUBSTRUCTURE
     1 T96         1 TEMP              0 ****  ****    0 ROOT
