@<TRIPOS>MOLECULE
T96
   47    50     1     0     0
SMALL
abcg2


@<TRIPOS>ATOM
      1 C1         -33.8040    -1.7500    15.6760 c5         1 T96       0.133300
      2 C2         -32.8840     0.2820    14.9200 c5         1 T96       0.319300
      3 C3         -31.0990    -0.2060    13.1950 cc         1 T96       0.416700
      4 C5         -31.0010     1.7720    14.1650 ca         1 T96       0.141500
      5 C6         -30.3200     3.8000    14.7220 ca         1 T96       0.173900
      6 C7         -29.1110     2.7200    13.0620 ca         1 T96       0.434900
      7 C8         -27.8890     1.8990    11.0600 c3         1 T96       0.283100
      8 C11        -30.0960     1.1760     8.0420 ca         1 T96      -0.171500
      9 C10        -29.1910     1.0320     9.0840 ca         1 T96      -0.059000
     10 C9         -28.9120     2.0840     9.9560 ca         1 T96      -0.150300
     11 C12        -30.7660     2.3900     7.8430 ca         1 T96       0.280000
     12 C15        -33.4640    -3.0760    15.0320 c3         1 T96       0.147600
     13 C16        -34.1270    -0.0140    14.0780 c5         1 T96       0.140300
     14 N          -31.7130     0.5960    14.1330 na         1 T96      -0.296300
     15 C          -34.9230    -0.9460    14.9970 c5         1 T96       0.111300
     16 O          -35.6390    -0.1460    15.9300 oh         1 T96      -0.693000
     17 C13        -30.4920     3.4460     8.7210 ca         1 T96      -0.171500
     18 C14        -29.5790     3.2890     9.7550 ca         1 T96      -0.059000
     19 C4         -29.9830     1.6210    13.2160 ca         1 T96      -0.075600
     20 N1         -30.0670     0.3640    12.6300 nd         1 T96      -0.555100
     21 N2         -31.2160     2.8380    14.9410 nb         1 T96      -0.211000
     22 N3         -29.3140     3.8010    13.8480 nb         1 T96      -0.302000
     23 N5         -31.7260     2.5220     6.8430 nv         1 T96      -1.070000
     24 O1         -32.6440    -0.8810    15.6890 os         1 T96      -0.451000
     25 O2         -33.1920    -2.8900    13.6430 oh         1 T96      -0.738000
     26 O3         -34.7420     1.2010    13.7140 oh         1 T96      -0.679000
     27 H1         -34.0790    -1.9490    16.7150 h1         1 T96       0.073700
     28 H2         -33.0630     1.1480    15.5600 h2         1 T96       0.125700
     29 H3         -31.4630    -1.2030    12.9960 h5         1 T96       0.076800
     30 H4         -27.6040     3.6720    12.1820 hn         1 T96       0.495000
     31 H5         -30.4230     4.6970    15.3230 h5         1 T96       0.046100
     32 H6         -27.9050     0.8630    11.3950 h1         1 T96       0.068200
     33 H7         -26.8840     2.1000    10.6820 h1         1 T96       0.068200
     34 H9         -28.6950     0.0780     9.2240 ha         1 T96       0.112000
     35 H10        -34.3120    -3.7550    15.1770 h1         1 T96       0.038700
     36 H11        -32.5930    -3.5000    15.5430 h1         1 T96       0.038700
     37 H12        -33.8340    -0.5860    13.1970 h1         1 T96       0.067700
     38 H13        -35.6030    -1.5920    14.4370 h1         1 T96       0.058700
     39 H14        -36.1190    -0.7350    16.5250 ho         1 T96       0.500000
     40 H15        -31.0020     4.3940     8.5880 ha         1 T96       0.111000
     41 H16        -29.3930     4.1250    10.4180 ha         1 T96       0.112000
     42 H17        -31.8950     3.4700     6.5380 hn         1 T96       0.442500
     43 H18        -31.6170     1.8920     6.0610 hn         1 T96       0.442500
     44 H19        -32.8900    -3.7290    13.2760 ho         1 T96       0.512000
     45 H20        -35.3490     1.0340    12.9830 ho         1 T96       0.510000
     46 N4         -28.0740     2.7790    12.2040 nu         1 T96      -0.909100
     47 H8         -30.2980     0.3420     7.3800 ha         1 T96       0.111000
@<TRIPOS>BOND
     1     1    12 1   
     2     1    15 1   
     3     1    24 1   
     4     1    27 1   
     5     2    13 1   
     6     2    14 1   
     7     2    24 1   
     8     2    28 1   
     9     3    14 1   
    10     3    20 2   
    11     3    29 1   
    12     4    14 1   
    13     4    19 ar  
    14     4    21 ar  
    15     5    21 ar  
    16     5    22 ar  
    17     5    31 1   
    18     6    19 ar  
    19     6    22 ar  
    20     6    46 1   
    21     7    10 1   
    22     7    32 1   
    23     7    33 1   
    24     7    46 1   
    25     8     9 ar  
    26     8    11 ar  
    27     8    47 1   
    28     9    10 ar  
    29     9    34 1   
    30    10    18 ar  
    31    11    17 ar  
    32    11    23 1   
    33    12    25 1   
    34    12    35 1   
    35    12    36 1   
    36    13    15 1   
    37    13    26 1   
    38    13    37 1   
    39    15    16 1   
    40    15    38 1   
    41    16    39 1   
    42    17    18 ar  
    43    17    40 1   
    44    18    41 1   
    45    19    20 1   
    46    23    42 1   
    47    23    43 1   
    48    25    44 1   
    49    26    45 1   
    50    30    46 1   
@<TRIPOS>SUBSTRUCTURE
     1 T96         1 TEMP              0 ****  ****    0 ROOT
