@<TRIPOS>MOLECULE
T97
   61    62     1     0     0
SMALL
No Charge or Current Charge


@<TRIPOS>ATOM
      1 C01          6.6150     1.7590    -0.1540 ca         1 T97       0.119000
      2 C02          6.2620     2.6560     0.8750 ca         1 T97       0.117000
      3 C03          5.2930     2.2850     1.8230 ca         1 T97      -0.094000
      4 C04          4.6780     1.0230     1.7480 ca         1 T97      -0.098000
      5 C05          5.0290     0.1220     0.7240 ca         1 T97      -0.072300
      6 C06          5.9990     0.4970    -0.2260 ca         1 T97      -0.096000
      7 C07          4.3580    -1.2430     0.6370 c3         1 T97      -0.036100
      8 C08          3.1350    -1.2210    -0.3070 c3         1 T97       0.171800
      9 N09          2.2800    -2.4460    -0.2670 n3         1 T97      -0.755600
     10 C10          2.9940    -3.6550    -0.7800 c3         1 T97       0.175800
     11 C11          2.3050    -5.0240    -0.5150 c3         1 T97      -0.062700
     12 C12          3.1690    -6.1860    -1.0550 c3         1 T97      -0.086600
     13 C13          1.9690    -5.2350     0.9810 c3         1 T97      -0.086600
     14 C14          0.9510    -2.2260    -0.9320 c3         1 T97       0.128800
     15 C15          0.0350    -1.2520    -0.1460 c3         1 T97       0.170300
     16 C16         -1.4680    -1.4360    -0.4790 c3         1 T97       0.158600
     17 O17         -2.2240    -0.4040     0.1870 os         1 T97      -0.326100
     18 C18         -3.5950    -0.3080     0.0730 ca         1 T97       0.158100
     19 C19         -4.3620    -1.2080    -0.6970 ca         1 T97      -0.166000
     20 C20         -5.7590    -1.0550    -0.7720 ca         1 T97      -0.065500
     21 C21         -6.4110    -0.0100    -0.0900 ca         1 T97       0.185000
     22 C22         -5.6370     0.8810     0.6840 ca         1 T97      -0.065500
     23 C23         -4.2400     0.7310     0.7610 ca         1 T97      -0.166000
     24 N24         -7.8030     0.0940    -0.2010 nu         1 T97      -0.867100
     25 S25         -8.8140     1.3860     0.0780 s6         1 T97       1.185100
     26 C26         -8.1870     2.6920    -0.9590 c3         1 T97      -0.383100
     27 O27        -10.1180     0.9620    -0.4330 o          1 T97      -0.527000
     28 O28         -8.6480     1.7540     1.4860 o          1 T97      -0.527000
     29 O29          0.3140    -1.5020     1.2380 oh         1 T97      -0.652000
     30 Cl1          7.0150     4.2470     0.9960 cl         1 T97      -0.170000
     31 Cl2          7.8250     2.1900    -1.3640 cl         1 T97      -0.174000
     32 H1           5.0190     2.9770     2.6160 ha         1 T97       0.134000
     33 H2           3.9270     0.7470     2.4860 ha         1 T97       0.125000
     34 H3           6.2750    -0.1880    -1.0240 ha         1 T97       0.129000
     35 H4           5.0870    -1.9840     0.2910 hc         1 T97       0.059700
     36 H5           4.0320    -1.5680     1.6320 hc         1 T97       0.059700
     37 H6           2.5400    -0.3430    -0.0220 h1         1 T97       0.040200
     38 H7           3.4840    -1.0390    -1.3320 h1         1 T97       0.040200
     39 H9           3.1580    -3.5500    -1.8610 h1         1 T97       0.035700
     40 H10          3.9870    -3.7230    -0.3190 h1         1 T97       0.035700
     41 H11          1.3640    -5.0590    -1.0750 hc         1 T97       0.048700
     42 H12          4.1320    -6.2330    -0.5320 hc         1 T97       0.035200
     43 H13          2.6570    -7.1460    -0.9200 hc         1 T97       0.035200
     44 H14          3.3660    -6.0560    -2.1260 hc         1 T97       0.035200
     45 H15          1.2720    -4.4680     1.3400 hc         1 T97       0.035200
     46 H16          1.4970    -6.2130     1.1390 hc         1 T97       0.035200
     47 H17          2.8770    -5.1880     1.5950 hc         1 T97       0.035200
     48 H18          1.0860    -1.8500    -1.9560 h1         1 T97       0.045700
     49 H19          0.4040    -3.1720    -1.0140 h1         1 T97       0.045700
     50 H20          0.3250    -0.2250    -0.4040 h1         1 T97       0.046700
     51 H21         -1.6040    -1.3650    -1.5660 h1         1 T97       0.040200
     52 H22         -1.7960    -2.4320    -0.1530 h1         1 T97       0.040200
     53 H23         -3.8980    -2.0250    -1.2400 ha         1 T97       0.129000
     54 H24         -6.3390    -1.7550    -1.3690 ha         1 T97       0.126000
     55 H25         -6.1020     1.6910     1.2360 ha         1 T97       0.126000
     56 H26         -3.6530     1.4230     1.3590 ha         1 T97       0.129000
     57 H27         -8.2870    -0.5060    -0.8580 hn         1 T97       0.486000
     58 H28         -8.8440     3.5580    -0.8280 h1         1 T97       0.101033
     59 H29         -7.1670     2.9180    -0.6360 h1         1 T97       0.101033
     60 H30         -8.2070     2.3330    -1.9920 h1         1 T97       0.101033
     61 H31          1.1890    -1.9650     1.1660 ho         1 T97       0.470000
@<TRIPOS>BOND
     1     1     2 ar  
     2     1     6 ar  
     3     1    31 1   
     4     2     3 ar  
     5     2    30 1   
     6     3     4 ar  
     7     3    32 1   
     8     4     5 ar  
     9     4    33 1   
    10     5     6 ar  
    11     5     7 1   
    12     6    34 1   
    13     7     8 1   
    14     7    35 1   
    15     7    36 1   
    16     8     9 1   
    17     8    37 1   
    18     8    38 1   
    19     9    10 1   
    20     9    14 1   
    21    10    11 1   
    22    10    39 1   
    23    10    40 1   
    24    11    12 1   
    25    11    13 1   
    26    11    41 1   
    27    12    42 1   
    28    12    43 1   
    29    12    44 1   
    30    13    45 1   
    31    13    46 1   
    32    13    47 1   
    33    14    15 1   
    34    14    48 1   
    35    14    49 1   
    36    15    16 1   
    37    15    29 1   
    38    15    50 1   
    39    16    17 1   
    40    16    51 1   
    41    16    52 1   
    42    17    18 1   
    43    18    19 ar  
    44    18    23 ar  
    45    19    20 ar  
    46    19    53 1   
    47    20    21 ar  
    48    20    54 1   
    49    21    22 ar  
    50    21    24 1   
    51    22    23 ar  
    52    22    55 1   
    53    23    56 1   
    54    24    25 1   
    55    24    57 1   
    56    25    26 1   
    57    25    27 2   
    58    25    28 2   
    59    26    58 1   
    60    26    59 1   
    61    26    60 1   
    62    29    61 1   
@<TRIPOS>SUBSTRUCTURE
     1 T97         1 TEMP              0 ****  ****    0 ROOT
