@<TRIPOS>MOLECULE
T97
   61    62     1     0     0
SMALL
bcc


@<TRIPOS>ATOM
      1 C01          6.9040     1.1110     0.1340 ca         1 T97       0.027400
      2 C02          6.5610     2.2620     0.8320 ca         1 T97       0.025400
      3 C03          5.3720     2.2990     1.5450 ca         1 T97      -0.112000
      4 C04          4.5370     1.1950     1.5580 ca         1 T97      -0.116000
      5 C05          4.8710     0.0350     0.8640 ca         1 T97      -0.072300
      6 C06          6.0630     0.0080     0.1500 ca         1 T97      -0.114000
      7 C07          3.9440    -1.1460     0.8390 c3         1 T97      -0.036100
      8 C08          2.9490    -1.0430    -0.3180 c3         1 T97       0.171800
      9 N09          2.0800    -2.2080    -0.3870 n3         1 T97      -0.755600
     10 C10          2.7110    -3.3300    -1.0740 c3         1 T97       0.175800
     11 C11          2.2300    -4.7030    -0.6070 c3         1 T97      -0.062700
     12 C12          2.8230    -5.7790    -1.5110 c3         1 T97      -0.086600
     13 C13          2.5960    -4.9610     0.8490 c3         1 T97      -0.086600
     14 C14          0.7610    -1.8990    -0.9140 c3         1 T97       0.128800
     15 C15         -0.0970    -1.2460     0.1740 c3         1 T97       0.147100
     16 C16         -1.5480    -1.2540    -0.2450 c3         1 T97       0.135400
     17 O17         -2.2820    -0.4830     0.6890 os         1 T97      -0.302900
     18 C18         -3.6120    -0.3610     0.5310 ca         1 T97       0.158100
     19 C19         -4.3410    -0.9610    -0.4920 ca         1 T97      -0.184000
     20 C20         -5.7150    -0.7660    -0.5640 ca         1 T97      -0.083500
     21 C21         -6.3770     0.0030     0.3820 ca         1 T97       0.046600
     22 C22         -5.6450     0.5940     1.4090 ca         1 T97      -0.083500
     23 C23         -4.2770     0.4220     1.4780 ca         1 T97      -0.184000
     24 N24         -7.7880     0.1640     0.3380 nu         1 T97      -0.673500
     25 S25         -8.4250     1.5690    -0.2790 s6         1 T97       1.215900
     26 C26         -7.9850     1.6140    -2.0010 c3         1 T97      -0.272300
     27 O27         -9.8680     1.4310    -0.1690 o          1 T97      -0.597800
     28 O28         -7.7560     2.6750     0.3860 o          1 T97      -0.597800
     29 O29          0.0550    -1.9460     1.3830 oh         1 T97      -0.589800
     30 CL1          7.5970     3.6390     0.8270 cl         1 T97      -0.078400
     31 CL2          8.3780     1.0330    -0.7570 cl         1 T97      -0.082400
     32 H1           5.1040     3.1920     2.0930 ha         1 T97       0.152000
     33 H2           3.6150     1.2380     2.1240 ha         1 T97       0.143000
     34 H3           6.3490    -0.8820    -0.3960 ha         1 T97       0.147000
     35 H4           4.5260    -2.0670     0.7550 hc         1 T97       0.059700
     36 H5           3.3860    -1.2080     1.7750 hc         1 T97       0.059700
     37 H6           2.3410    -0.1480    -0.1680 h1         1 T97       0.040200
     38 H7           3.4860    -0.8870    -1.2650 h1         1 T97       0.040200
     39 H9           2.5750    -3.2400    -2.1630 h1         1 T97       0.035700
     40 H10          3.7900    -3.2770    -0.9030 h1         1 T97       0.035700
     41 H11          1.1390    -4.7490    -0.7040 hc         1 T97       0.048700
     42 H12          3.9150    -5.7740    -1.4560 hc         1 T97       0.035200
     43 H13          2.4830    -6.7720    -1.2170 hc         1 T97       0.035200
     44 H14          2.5430    -5.6280    -2.5550 hc         1 T97       0.035200
     45 H15          2.1870    -4.2000     1.5130 hc         1 T97       0.035200
     46 H16          2.2180    -5.9290     1.1830 hc         1 T97       0.035200
     47 H17          3.6810    -4.9660     0.9800 hc         1 T97       0.035200
     48 H18          0.7990    -1.2560    -1.8050 h1         1 T97       0.045700
     49 H19          0.2860    -2.8360    -1.2190 h1         1 T97       0.045700
     50 H20          0.2140    -0.1960     0.2930 h1         1 T97       0.046700
     51 H21         -1.6430    -0.8300    -1.2520 h1         1 T97       0.040200
     52 H22         -1.9190    -2.2850    -0.2760 h1         1 T97       0.040200
     53 H23         -3.8660    -1.5760    -1.2440 ha         1 T97       0.147000
     54 H24         -6.2720    -1.2300    -1.3680 ha         1 T97       0.144000
     55 H25         -6.1510     1.1790     2.1650 ha         1 T97       0.144000
     56 H26         -3.7120     0.8820     2.2790 ha         1 T97       0.147000
     57 H27         -8.3010    -0.6510     0.0160 hn         1 T97       0.430800
     58 H28         -8.3940     2.5290    -2.4250 h1         1 T97       0.101033
     59 H29         -6.9020     1.6160    -2.1000 h1         1 T97       0.101033
     60 H30         -8.4110     0.7470    -2.5010 h1         1 T97       0.101033
     61 H31          0.9570    -2.3040     1.3380 ho         1 T97       0.431000
@<TRIPOS>BOND
     1     1     2 ar  
     2     1     6 ar  
     3     1    31 1   
     4     2     3 ar  
     5     2    30 1   
     6     3     4 ar  
     7     3    32 1   
     8     4     5 ar  
     9     4    33 1   
    10     5     6 ar  
    11     5     7 1   
    12     6    34 1   
    13     7     8 1   
    14     7    35 1   
    15     7    36 1   
    16     8     9 1   
    17     8    37 1   
    18     8    38 1   
    19     9    10 1   
    20     9    14 1   
    21    10    11 1   
    22    10    39 1   
    23    10    40 1   
    24    11    12 1   
    25    11    13 1   
    26    11    41 1   
    27    12    42 1   
    28    12    43 1   
    29    12    44 1   
    30    13    45 1   
    31    13    46 1   
    32    13    47 1   
    33    14    15 1   
    34    14    48 1   
    35    14    49 1   
    36    15    16 1   
    37    15    29 1   
    38    15    50 1   
    39    16    17 1   
    40    16    51 1   
    41    16    52 1   
    42    17    18 1   
    43    18    19 ar  
    44    18    23 ar  
    45    19    20 ar  
    46    19    53 1   
    47    20    21 ar  
    48    20    54 1   
    49    21    22 ar  
    50    21    24 1   
    51    22    23 ar  
    52    22    55 1   
    53    23    56 1   
    54    24    25 1   
    55    24    57 1   
    56    25    26 1   
    57    25    27 2   
    58    25    28 2   
    59    26    58 1   
    60    26    59 1   
    61    26    60 1   
    62    29    61 1   
@<TRIPOS>SUBSTRUCTURE
     1 T97         1 TEMP              0 ****  ****    0 ROOT
