@<TRIPOS>MOLECULE
T98
   36    38     1     0     0
SMALL
bcc


@<TRIPOS>ATOM
      1 C1          -2.0650    -2.4600     1.2130 c3         1 T98      -0.099100
      2 C2          -2.3820    -1.4010     0.1750 c6         1 T98       0.216100
      3 C3          -1.2520    -0.4350    -0.0670 ca         1 T98      -0.150300
      4 C4           0.0860    -0.7770    -0.0120 ca         1 T98      -0.060000
      5 C5           1.0810     0.1430    -0.3490 ca         1 T98      -0.041000
      6 C6           0.6990     1.4250    -0.7480 ca         1 T98      -0.084000
      7 C7          -0.6350     1.7900    -0.7810 ca         1 T98      -0.160000
      8 C8          -1.6040     0.8580    -0.4370 ca         1 T98       0.061600
      9 N1          -2.9550     1.1930    -0.4360 ns         1 T98      -0.432100
     10 C9          -3.8830     0.4980     0.2390 cs         1 T98       0.624500
     11 S1          -5.4190     1.0610     0.4910 s          1 T98      -0.522400
     12 O1          -3.5100    -0.6620     0.7370 os         1 T98      -0.353900
     13 C10          2.4790    -0.2840    -0.3290 cc         1 T98      -0.050300
     14 C11          3.0060    -1.4760    -0.8030 cd         1 T98      -0.190000
     15 C12          4.3890    -1.4400    -0.6040 cd         1 T98      -0.127000
     16 C13          4.6690    -0.2270    -0.0050 cc         1 T98      -0.070300
     17 N2           3.4980     0.4680     0.1620 na         1 T98      -0.010100
     18 C14          3.3980     1.7570     0.8180 c3         1 T98       0.017600
     19 C15          5.9150     0.2840     0.4010 cg         1 T98       0.256800
     20 N3           6.9470     0.6890     0.7260 n1         1 T98      -0.358800
     21 C16         -2.8300    -2.0280    -1.1400 c3         1 T98      -0.099100
     22 H11A        -2.9420    -3.0810     1.3990 hc         1 T98       0.056200
     23 H12A        -1.2730    -3.1160     0.8550 hc         1 T98       0.056200
     24 H13         -1.7420    -2.0150     2.1540 hc         1 T98       0.056200
     25 H4           0.3740    -1.7740     0.2960 ha         1 T98       0.147000
     26 H6           1.4420     2.1500    -1.0530 ha         1 T98       0.140000
     27 H7          -0.9210     2.7900    -1.0800 ha         1 T98       0.145000
     28 HN1         -3.2330     2.0970    -0.7890 hn         1 T98       0.356500
     29 H11          2.4410    -2.2670    -1.2700 ha         1 T98       0.157000
     30 H12          5.1150    -2.1940    -0.8650 ha         1 T98       0.164000
     31 H141         3.5120     2.5730     0.1060 h1         1 T98       0.061367
     32 H142         2.4350     1.8440     1.3120 h1         1 T98       0.061367
     33 H143         4.1730     1.8420     1.5760 h1         1 T98       0.061367
     34 H161        -3.1130    -1.2750    -1.8770 hc         1 T98       0.056200
     35 H162        -2.0100    -2.6070    -1.5630 hc         1 T98       0.056200
     36 H163        -3.6750    -2.6980    -0.9810 hc         1 T98       0.056200
@<TRIPOS>BOND
     1     1     2 1   
     2     1    22 1   
     3     1    23 1   
     4     1    24 1   
     5     2     3 1   
     6     2    12 1   
     7     2    21 1   
     8     3     4 ar  
     9     3     8 ar  
    10     4     5 ar  
    11     4    25 1   
    12     5     6 ar  
    13     5    13 1   
    14     6     7 ar  
    15     6    26 1   
    16     7     8 ar  
    17     7    27 1   
    18     8     9 1   
    19     9    10 1   
    20     9    28 1   
    21    10    11 2   
    22    10    12 1   
    23    13    14 2   
    24    13    17 1   
    25    14    15 1   
    26    14    29 1   
    27    15    16 2   
    28    15    30 1   
    29    16    17 1   
    30    16    19 1   
    31    17    18 1   
    32    18    31 1   
    33    18    32 1   
    34    18    33 1   
    35    19    20 3   
    36    21    34 1   
    37    21    35 1   
    38    21    36 1   
@<TRIPOS>SUBSTRUCTURE
     1 T98         1 TEMP              0 ****  ****    0 ROOT
