@<TRIPOS>MOLECULE
T98
   36    38     1     0     0
SMALL
No Charge or Current Charge


@<TRIPOS>ATOM
      1 C1          -2.1640    -2.3900     1.3350 c3         1 T98      -0.099100
      2 C2          -2.4370    -1.4270     0.1490 c6         1 T98       0.239300
      3 C3          -1.3110    -0.4020    -0.0670 ca         1 T98      -0.150300
      4 C4           0.0540    -0.7630    -0.0510 ca         1 T98      -0.042000
      5 C5           1.0550     0.1980    -0.3060 ca         1 T98      -0.041000
      6 C6           0.6740     1.5220    -0.6050 ca         1 T98      -0.066000
      7 C7          -0.6840     1.8810    -0.6370 ca         1 T98      -0.142000
      8 C8          -1.6640     0.9160    -0.3660 ca         1 T98       0.061600
      9 N1          -3.0250     1.2310    -0.3700 ns         1 T98      -0.365100
     10 C9          -4.0800     0.4640     0.0250 cs         1 T98       0.557500
     11 S1          -5.6530     1.0220     0.0490 s          1 T98      -0.522400
     12 O1          -3.6930    -0.7710     0.4500 os         1 T98      -0.377100
     13 C10          2.4670    -0.1920    -0.2850 cc         1 T98      -0.101000
     14 C11          2.9140    -1.3660    -0.8270 cd         1 T98      -0.172000
     15 C12          4.3170    -1.4000    -0.7000 cd         1 T98      -0.109000
     16 C13          4.7360    -0.2460    -0.0860 cc         1 T98      -0.121000
     17 N2           3.5860     0.5120     0.1790 na         1 T98       0.062000
     18 C14          3.5600     1.8050     0.8840 c3         1 T98       0.046900
     19 C15          6.0770     0.1200     0.2250 cg         1 T98       0.346000
     20 N3           7.1660     0.4430     0.4930 n1         1 T98      -0.448000
     21 C16         -2.6690    -2.2470    -1.1460 c3         1 T98      -0.099100
     22 H11A        -3.0390    -3.0150     1.5480 hc         1 T98       0.056200
     23 H12A        -1.3250    -3.0640     1.1300 hc         1 T98       0.056200
     24 H13         -1.9260    -1.8290     2.2470 hc         1 T98       0.056200
     25 H4           0.3440    -1.7890     0.1610 ha         1 T98       0.129000
     26 H6           1.4260     2.2720    -0.8350 ha         1 T98       0.122000
     27 H7          -0.9680     2.9040    -0.8710 ha         1 T98       0.127000
     28 HN1         -3.2650     2.1680    -0.6690 hn         1 T98       0.356500
     29 H11          2.3010    -2.1320    -1.2920 ha         1 T98       0.139000
     30 H12          4.9630    -2.2040    -1.0420 ha         1 T98       0.146000
     31 H141         3.7130     2.6180     0.1640 h1         1 T98       0.061367
     32 H142         2.5930     1.9370     1.3840 h1         1 T98       0.061367
     33 H143         4.3530     1.8360     1.6410 h1         1 T98       0.061367
     34 H161        -2.8990    -1.5900    -1.9930 hc         1 T98       0.056200
     35 H162        -1.7780    -2.8280    -1.4120 hc         1 T98       0.056200
     36 H163        -3.5030    -2.9490    -1.0310 hc         1 T98       0.056200
@<TRIPOS>BOND
     1     1     2 1   
     2     1    22 1   
     3     1    23 1   
     4     1    24 1   
     5     2     3 1   
     6     2    12 1   
     7     2    21 1   
     8     3     4 ar  
     9     3     8 ar  
    10     4     5 ar  
    11     4    25 1   
    12     5     6 ar  
    13     5    13 1   
    14     6     7 ar  
    15     6    26 1   
    16     7     8 ar  
    17     7    27 1   
    18     8     9 1   
    19     9    10 1   
    20     9    28 1   
    21    10    11 2   
    22    10    12 1   
    23    13    14 2   
    24    13    17 1   
    25    14    15 1   
    26    14    29 1   
    27    15    16 2   
    28    15    30 1   
    29    16    17 1   
    30    16    19 1   
    31    17    18 1   
    32    18    31 1   
    33    18    32 1   
    34    18    33 1   
    35    19    20 3   
    36    21    34 1   
    37    21    35 1   
    38    21    36 1   
@<TRIPOS>SUBSTRUCTURE
     1 T98         1 TEMP              0 ****  ****    0 ROOT
