@<TRIPOS>MOLECULE
T9A
   50    53     1     0     0
SMALL
bcc


@<TRIPOS>ATOM
      1 C4          23.3720    41.4850     2.3100 ca         1 T9A      -0.121000
      2 C5          24.1710    41.8830     3.3720 ca         1 T9A      -0.069800
      3 C6          25.6120    41.4680     3.4530 c3         1 T9A      -0.047800
      4 N1          22.1950    43.8570    -0.0490 ns         1 T9A      -0.478100
      5 C7          23.6160    42.6970     4.3590 ca         1 T9A      -0.125000
      6 C8          22.2890    43.0980     4.3030 ca         1 T9A      -0.069800
      7 C9          21.6900    43.9540     5.3820 c3         1 T9A      -0.047800
      8 C10         21.5060    42.6790     3.2270 ca         1 T9A      -0.121000
      9 C11         21.9320    41.4530    -0.2550 ca         1 T9A      -0.130300
     10 C12         22.1700    40.2890    -0.9780 ca         1 T9A      -0.095000
     11 C13         22.9310    40.2840    -2.1410 ca         1 T9A      -0.089300
     12 C14         23.2020    39.0140    -2.8910 c3         1 T9A      -0.045800
     13 C15         23.4550    41.4990    -2.5800 ca         1 T9A      -0.098000
     14 O1          17.6540    41.8620     0.7760 o          1 T9A      -0.592100
     15 C19         18.6720    40.2300     2.0750 cc         1 T9A      -0.151700
     16 S           17.3040    39.2090     1.8270 ss         1 T9A       0.072200
     17 C22         17.7910    38.1900     3.1110 cc         1 T9A      -0.047000
     18 BR          16.7950    36.6840     3.5380 br         1 T9A      -0.031100
     19 C21         18.9300    38.6170     3.7270 cd         1 T9A      -0.124000
     20 C20         19.4310    39.7970     3.1270 cd         1 T9A      -0.114000
     21 N           19.8980    42.0450     0.9690 n          1 T9A      -0.454800
     22 C1          19.8330    43.3010     0.2350 c3         1 T9A       0.011000
     23 C2          21.1930    41.3820     1.0630 c3         1 T9A       0.216300
     24 C17         22.4340    42.6600    -0.7360 ca         1 T9A       0.079600
     25 C16         23.2030    42.6740    -1.8950 ca         1 T9A      -0.157000
     26 C           21.0140    44.2260     0.4970 c          1 T9A       0.708500
     27 O           20.8780    45.2760     1.0970 o          1 T9A      -0.610500
     28 C3          22.0390    41.8860     2.2240 ca         1 T9A      -0.100300
     29 H1          23.7980    40.8590     1.5340 ha         1 T9A       0.138500
     30 H2          26.2750    42.3200     3.2900 hc         1 T9A       0.044033
     31 H3          25.8530    41.0600     4.4350 hc         1 T9A       0.044033
     32 H4          25.8550    40.7130     2.7060 hc         1 T9A       0.044033
     33 H5          22.9530    44.5220     0.0210 hn         1 T9A       0.330500
     34 H6          24.2340    43.0260     5.1880 ha         1 T9A       0.130000
     35 H7          21.0840    43.3550     6.0650 hc         1 T9A       0.044033
     36 H8          22.4570    44.4500     5.9740 hc         1 T9A       0.044033
     37 H9          21.0380    44.7210     4.9640 hc         1 T9A       0.044033
     38 H10         20.4700    42.9920     3.1840 ha         1 T9A       0.138500
     39 H11         21.7730    39.3520    -0.6020 ha         1 T9A       0.135000
     40 H12         24.2620    38.7570    -2.8600 hc         1 T9A       0.045033
     41 H13         22.6460    38.1760    -2.4730 hc         1 T9A       0.045033
     42 H14         22.9260    39.1080    -3.9420 hc         1 T9A       0.045033
     43 H15         24.0600    41.5310    -3.4790 ha         1 T9A       0.136000
     44 H16         19.3910    38.1210     4.5680 ha         1 T9A       0.166000
     45 H17         20.3090    40.3090     3.4950 ha         1 T9A       0.168000
     46 H18         18.9410    43.8390     0.5420 h1         1 T9A       0.082200
     47 H19         19.7530    43.1180    -0.8430 h1         1 T9A       0.082200
     48 H20         21.0020    40.3230     1.2410 h1         1 T9A       0.077700
     49 H21         23.5990    43.6130    -2.2630 ha         1 T9A       0.140000
     50 C18         18.7110    41.4360     1.2220 c          1 T9A       0.708700
@<TRIPOS>BOND
     1     1     2 ar  
     2     1    28 ar  
     3     1    29 1   
     4     2     3 1   
     5     2     5 ar  
     6     3    30 1   
     7     3    31 1   
     8     3    32 1   
     9     4    24 1   
    10     4    26 1   
    11     4    33 1   
    12     5     6 ar  
    13     5    34 1   
    14     6     7 1   
    15     6     8 ar  
    16     7    35 1   
    17     7    36 1   
    18     7    37 1   
    19     8    28 ar  
    20     8    38 1   
    21     9    10 ar  
    22     9    23 1   
    23     9    24 ar  
    24    10    11 ar  
    25    10    39 1   
    26    11    12 1   
    27    11    13 ar  
    28    12    40 1   
    29    12    41 1   
    30    12    42 1   
    31    13    25 ar  
    32    13    43 1   
    33    14    50 2   
    34    15    16 1   
    35    15    20 2   
    36    15    50 1   
    37    16    17 1   
    38    17    18 1   
    39    17    19 2   
    40    19    20 1   
    41    19    44 1   
    42    20    45 1   
    43    21    22 1   
    44    21    23 1   
    45    21    50 1   
    46    22    26 1   
    47    22    46 1   
    48    22    47 1   
    49    23    28 1   
    50    23    48 1   
    51    24    25 ar  
    52    25    49 1   
    53    26    27 2   
@<TRIPOS>SUBSTRUCTURE
     1 T9A         1 TEMP              0 ****  ****    0 ROOT
