@<TRIPOS>MOLECULE
T9A
   50    53     1     0     0
SMALL
No Charge or Current Charge


@<TRIPOS>ATOM
      1 C4          23.3750    41.4710     2.3270 ca         1 T9A      -0.103000
      2 C5          24.2020    41.8780     3.3890 ca         1 T9A      -0.069800
      3 C6          25.6520    41.4230     3.4430 c3         1 T9A      -0.047800
      4 N1          22.1310    43.9390    -0.1630 ns         1 T9A      -0.152000
      5 C7          23.6810    42.7100     4.3940 ca         1 T9A      -0.107000
      6 C8          22.3400    43.1290     4.3460 ca         1 T9A      -0.069800
      7 C9          21.7740    44.0210     5.4410 c3         1 T9A      -0.047800
      8 C10         21.5190    42.7130     3.2830 ca         1 T9A      -0.103000
      9 C11         21.9110    41.4800    -0.2550 ca         1 T9A      -0.130300
     10 C12         22.1920    40.2770    -0.9390 ca         1 T9A      -0.077000
     11 C13         22.9600    40.2770    -2.1170 ca         1 T9A      -0.089300
     12 C14         23.2580    38.9700    -2.8350 c3         1 T9A      -0.045800
     13 C15         23.4680    41.4900    -2.6120 ca         1 T9A      -0.080000
     14 O1          17.6440    41.6760     0.3900 o          1 T9A      -0.592100
     15 C19         18.5230    40.1270     1.9290 cc         1 T9A      -0.296600
     16 S           17.1450    39.0390     1.7810 ss         1 T9A       0.362000
     17 C22         17.7580    38.0460     3.1000 cc         1 T9A      -0.191900
     18 Br          16.8620    36.4930     3.6810 br         1 T9A      -0.031100
     19 C21         18.9030    38.5700     3.6380 cd         1 T9A      -0.106000
     20 C20         19.3330    39.7580     2.9870 cd         1 T9A      -0.096000
     21 N           19.8180    42.0710     0.9910 n          1 T9A      -0.387800
     22 C1          19.7570    43.4450     0.3950 c3         1 T9A       0.011000
     23 C2          21.1510    41.4180     1.0770 c3         1 T9A       0.216300
     24 C17         22.4030    42.6980    -0.7800 ca         1 T9A      -0.013000
     25 C16         23.1920    42.6930    -1.9430 ca         1 T9A      -0.139000
     26 C           21.0040    44.3460     0.5220 c          1 T9A       0.566000
     27 O           20.9870    45.3970     1.1530 o          1 T9A      -0.535000
     28 C3          22.0290    41.8900     2.2530 ca         1 T9A      -0.100300
     29 H1          23.7850    40.8250     1.5530 ha         1 T9A       0.120500
     30 H2          26.2960    42.1030     2.8720 hc         1 T9A       0.044033
     31 H3          26.0260    41.3950     4.4740 hc         1 T9A       0.044033
     32 H4          25.7720    40.4170     3.0230 hc         1 T9A       0.044033
     33 H5          22.8980    44.5990    -0.1660 hn         1 T9A       0.164000
     34 H6          24.3190    43.0290     5.2160 ha         1 T9A       0.112000
     35 H7          21.2450    43.4250     6.1940 hc         1 T9A       0.044033
     36 H8          22.5650    44.5820     5.9530 hc         1 T9A       0.044033
     37 H9          21.0650    44.7510     5.0310 hc         1 T9A       0.044033
     38 H10         20.4810    43.0360     3.2690 ha         1 T9A       0.120500
     39 H11         21.8250    39.3310    -0.5470 ha         1 T9A       0.117000
     40 H12         24.1490    38.4880    -2.4150 hc         1 T9A       0.045033
     41 H13         22.4230    38.2650    -2.7460 hc         1 T9A       0.045033
     42 H14         23.4380    39.1310    -3.9050 hc         1 T9A       0.045033
     43 H15         24.0740    41.5020    -3.5150 ha         1 T9A       0.118000
     44 H16         19.4230    38.1290     4.4840 ha         1 T9A       0.148000
     45 H17         20.1980    40.3110     3.3330 ha         1 T9A       0.150000
     46 H18         18.9210    43.9910     0.8500 h1         1 T9A       0.082200
     47 H19         19.5440    43.3480    -0.6770 h1         1 T9A       0.082200
     48 H20         20.9870    40.3490     1.2450 h1         1 T9A       0.077700
     49 H21         23.5820    43.6270    -2.3410 ha         1 T9A       0.122000
     50 C18         18.6130    41.3230     1.0510 c          1 T9A       0.641700
@<TRIPOS>BOND
     1     1     2 ar  
     2     1    28 ar  
     3     1    29 1   
     4     2     3 1   
     5     2     5 ar  
     6     3    30 1   
     7     3    31 1   
     8     3    32 1   
     9     4    24 1   
    10     4    26 1   
    11     4    33 1   
    12     5     6 ar  
    13     5    34 1   
    14     6     7 1   
    15     6     8 ar  
    16     7    35 1   
    17     7    36 1   
    18     7    37 1   
    19     8    28 ar  
    20     8    38 1   
    21     9    10 ar  
    22     9    23 1   
    23     9    24 ar  
    24    10    11 ar  
    25    10    39 1   
    26    11    12 1   
    27    11    13 ar  
    28    12    40 1   
    29    12    41 1   
    30    12    42 1   
    31    13    25 ar  
    32    13    43 1   
    33    14    50 2   
    34    15    16 1   
    35    15    20 2   
    36    15    50 1   
    37    16    17 1   
    38    17    18 1   
    39    17    19 2   
    40    19    20 1   
    41    19    44 1   
    42    20    45 1   
    43    21    22 1   
    44    21    23 1   
    45    21    50 1   
    46    22    26 1   
    47    22    46 1   
    48    22    47 1   
    49    23    28 1   
    50    23    48 1   
    51    24    25 ar  
    52    25    49 1   
    53    26    27 2   
@<TRIPOS>SUBSTRUCTURE
     1 T9A         1 TEMP              0 ****  ****    0 ROOT
