@<TRIPOS>MOLECULE
T9B
   34    35     1     0     0
SMALL
No Charge or Current Charge


@<TRIPOS>ATOM
      1 C13          0.5120    -5.5860     5.3260 c5         1 T9B       0.081300
      2 C15         -1.8750    -5.1150     5.5140 c5         1 T9B      -0.119400
      3 C01         -0.3150   -14.2370     8.4380 c3         1 T9B       0.147900
      4 C03         -0.2050   -11.7930     8.7610 ca         1 T9B       0.144100
      5 C04         -0.7840   -10.6470     9.3310 ca         1 T9B      -0.175500
      6 C05         -0.1960    -9.3840     9.1450 ca         1 T9B      -0.061000
      7 C06          0.9820    -9.2570     8.3860 ca         1 T9B      -0.151300
      8 C07          1.5640   -10.4030     7.8110 ca         1 T9B      -0.061000
      9 C08          0.9760   -11.6670     7.9970 ca         1 T9B      -0.175500
     10 C09          1.6150    -7.8910     8.1800 c3         1 T9B       0.153300
     11 C11          1.3450    -5.9500     6.6070 c          1 T9B       0.580100
     12 C14         -0.4900    -4.4220     5.6380 c5         1 T9B      -0.098400
     13 C16         -1.5700    -6.1480     4.4120 c5         1 T9B       0.148600
     14 N10          1.0390    -7.2260     7.0190 ns         1 T9B      -0.492900
     15 O12          2.1620    -5.2430     7.1850 o          1 T9B      -0.617100
     16 O17         -0.3180    -6.6950     4.8560 os         1 T9B      -0.470000
     17 H1           1.2200    -5.3060     4.5350 h1         1 T9B       0.091700
     18 H2          -2.6760    -4.4210     5.2350 hc         1 T9B       0.061200
     19 H3          -2.1680    -5.6090     6.4480 hc         1 T9B       0.061200
     20 H4          -0.9580   -15.0760     8.7300 h1         1 T9B       0.040700
     21 H5          -0.2820   -14.1990     7.3420 h1         1 T9B       0.040700
     22 H6           0.6970   -14.4370     8.8150 h1         1 T9B       0.040700
     23 H7          -1.6930   -10.7400     9.9180 ha         1 T9B       0.122000
     24 H8          -0.6580    -8.5050     9.5900 ha         1 T9B       0.118000
     25 H9           2.4720   -10.3150     7.2190 ha         1 T9B       0.118000
     26 H10          1.4490   -12.5320     7.5420 ha         1 T9B       0.122000
     27 H11          2.6980    -7.9960     8.0310 h1         1 T9B       0.062200
     28 H12          1.4530    -7.2660     9.0690 h1         1 T9B       0.062200
     29 H13         -0.3820    -3.6170     4.9020 hc         1 T9B       0.069200
     30 H14         -0.3390    -3.9710     6.6260 hc         1 T9B       0.069200
     31 H15         -1.4350    -5.6780     3.4270 h1         1 T9B       0.048700
     32 H16         -2.3270    -6.9400     4.3370 h1         1 T9B       0.048700
     33 H17          0.3530    -7.7150     6.4540 hn         1 T9B       0.330500
     34 O02         -0.8270   -13.0050     8.9780 os         1 T9B      -0.341100
@<TRIPOS>BOND
     1     1    11 1   
     2     1    12 1   
     3     1    16 1   
     4     1    17 1   
     5     2    12 1   
     6     2    13 1   
     7     2    18 1   
     8     2    19 1   
     9     3    20 1   
    10     3    21 1   
    11     3    22 1   
    12     3    34 1   
    13     4     5 ar  
    14     4     9 ar  
    15     4    34 1   
    16     5     6 ar  
    17     5    23 1   
    18     6     7 ar  
    19     6    24 1   
    20     7     8 ar  
    21     7    10 1   
    22     8     9 ar  
    23     8    25 1   
    24     9    26 1   
    25    10    14 1   
    26    10    27 1   
    27    10    28 1   
    28    11    14 1   
    29    11    15 2   
    30    12    29 1   
    31    12    30 1   
    32    13    16 1   
    33    13    31 1   
    34    13    32 1   
    35    14    33 1   
@<TRIPOS>SUBSTRUCTURE
     1 T9B         1 TEMP              0 ****  ****    0 ROOT
