@<TRIPOS>MOLECULE
T9B
   34    35     1     0     0
SMALL
bcc


@<TRIPOS>ATOM
      1 C13          0.3290    -5.1590     5.9170 c5         1 T9B       0.058100
      2 C15         -1.7830    -6.1560     5.5580 c5         1 T9B      -0.119400
      3 C01         -0.8890   -13.6980     8.7210 c3         1 T9B       0.124700
      4 C03         -0.3470   -11.3910     8.6620 ca         1 T9B       0.144100
      5 C04         -0.6870   -10.0850     9.0290 ca         1 T9B      -0.193500
      6 C05          0.1250    -9.0270     8.6700 ca         1 T9B      -0.079000
      7 C06          1.2960    -9.2300     7.9360 ca         1 T9B      -0.151300
      8 C07          1.6190   -10.5280     7.5770 ca         1 T9B      -0.079000
      9 C08          0.8160   -11.6090     7.9310 ca         1 T9B      -0.193500
     10 C09          2.1740    -8.0700     7.5470 c3         1 T9B       0.153300
     11 C11          1.0020    -5.9710     7.0220 c          1 T9B       0.647100
     12 C14         -1.1530    -4.9400     6.2250 c5         1 T9B      -0.098400
     13 C16         -0.9240    -6.3000     4.3110 c5         1 T9B       0.125400
     14 N10          1.5170    -7.1470     6.6480 ns         1 T9B      -0.559900
     15 O12          1.0480    -5.5260     8.1620 o          1 T9B      -0.617100
     16 O17          0.3720    -5.8100     4.6640 os         1 T9B      -0.423600
     17 H1           0.8730    -4.2110     5.8480 h1         1 T9B       0.091700
     18 H2          -2.8370    -6.0190     5.3180 hc         1 T9B       0.061200
     19 H3          -1.6980    -7.0370     6.1990 hc         1 T9B       0.061200
     20 H4          -1.6890   -14.3110     9.1280 h1         1 T9B       0.040700
     21 H5          -0.8460   -13.8500     7.6390 h1         1 T9B       0.040700
     22 H6           0.0590   -14.0230     9.1590 h1         1 T9B       0.040700
     23 H7          -1.5900    -9.9110     9.6020 ha         1 T9B       0.140000
     24 H8          -0.1540    -8.0250     8.9750 ha         1 T9B       0.136000
     25 H9           2.5200   -10.7170     7.0040 ha         1 T9B       0.136000
     26 H10          1.1150   -12.6030     7.6270 ha         1 T9B       0.140000
     27 H11          3.0800    -8.4380     7.0630 h1         1 T9B       0.062200
     28 H12          2.4890    -7.5140     8.4300 h1         1 T9B       0.062200
     29 H13         -1.4970    -4.0190     5.7490 hc         1 T9B       0.069200
     30 H14         -1.3580    -4.8620     7.2900 hc         1 T9B       0.069200
     31 H15         -1.3250    -5.7000     3.4880 h1         1 T9B       0.048700
     32 H16         -0.8360    -7.3320     3.9670 h1         1 T9B       0.048700
     33 H17          1.4140    -7.4180     5.6830 hn         1 T9B       0.330500
     34 O02         -1.1950   -12.3600     9.0560 os         1 T9B      -0.317900
@<TRIPOS>BOND
     1     1    11 1   
     2     1    12 1   
     3     1    16 1   
     4     1    17 1   
     5     2    12 1   
     6     2    13 1   
     7     2    18 1   
     8     2    19 1   
     9     3    20 1   
    10     3    21 1   
    11     3    22 1   
    12     3    34 1   
    13     4     5 ar  
    14     4     9 ar  
    15     4    34 1   
    16     5     6 ar  
    17     5    23 1   
    18     6     7 ar  
    19     6    24 1   
    20     7     8 ar  
    21     7    10 1   
    22     8     9 ar  
    23     8    25 1   
    24     9    26 1   
    25    10    14 1   
    26    10    27 1   
    27    10    28 1   
    28    11    14 1   
    29    11    15 2   
    30    12    29 1   
    31    12    30 1   
    32    13    16 1   
    33    13    31 1   
    34    13    32 1   
    35    14    33 1   
@<TRIPOS>SUBSTRUCTURE
     1 T9B         1 TEMP              0 ****  ****    0 ROOT
