@<TRIPOS>MOLECULE
T9C
   52    56     1     0     0
SMALL
No Charge or Current Charge


@<TRIPOS>ATOM
      1 C1         -20.1290    -1.5850   -47.6490 c3         1 T9C      -0.039800
      2 C2         -18.8460    -2.7840   -45.8050 ca         1 T9C      -0.154000
      3 C3         -19.9390    -1.9680   -46.1900 ca         1 T9C      -0.063300
      4 C12        -19.6240    -4.4710   -41.6770 ca         1 T9C      -0.120300
      5 C13        -18.3910    -5.1740   -41.6160 ca         1 T9C      -0.068000
      6 C14        -18.3150    -6.5610   -41.3530 cp         1 T9C       0.023000
      7 C15        -19.5210    -7.2740   -41.1900 ca         1 T9C      -0.031000
      8 C16        -20.7560    -6.6190   -41.2940 ca         1 T9C      -0.201000
      9 C17        -20.8140    -5.2400   -41.5460 ca         1 T9C       0.102100
     10 C20        -17.6360    -1.3770   -41.9830 cc         1 T9C      -0.159000
     11 C21        -18.3680    -2.3420   -41.3390 cd         1 T9C      -0.190300
     12 C22        -17.7950    -2.5220   -40.0600 cd         1 T9C       0.284900
     13 C24        -16.9900    -7.2550   -41.3150 cp         1 T9C      -0.082000
     14 C25        -16.1040    -7.0980   -42.4080 ca         1 T9C      -0.147000
     15 C26        -14.8690    -7.7650   -42.4590 ca         1 T9C      -0.121000
     16 C27        -14.4650    -8.6250   -41.4110 ca         1 T9C      -0.133600
     17 C28        -15.3330    -8.7860   -40.3070 ca         1 T9C      -0.075000
     18 C29        -16.5700    -8.1110   -40.2520 ca         1 T9C      -0.107600
     19 C30        -17.4630    -8.2380   -39.0330 c          1 T9C       0.704600
     20 C10        -19.6310    -2.9410   -41.9840 c5         1 T9C       0.090900
     21 C31        -13.1290    -9.3530   -41.4630 c          1 T9C       0.707600
     22 C4         -20.8580    -1.5230   -45.2140 ca         1 T9C      -0.167000
     23 C5         -20.6400    -1.9060   -43.8870 ca         1 T9C      -0.010000
     24 C6         -19.5730    -2.6880   -43.4990 ca         1 T9C      -0.105300
     25 C7         -18.6570    -3.1540   -44.4560 ca         1 T9C      -0.048000
     26 C9         -20.9290    -2.1380   -41.5590 c          1 T9C       0.585000
     27 N19        -16.6360    -1.0620   -41.0650 na         1 T9C      -0.029200
     28 N23        -16.7310    -1.7620   -39.8710 nc         1 T9C      -0.530800
     29 N8         -21.3870    -1.6180   -42.7540 ns         1 T9C      -0.151000
     30 O11        -21.4110    -1.9250   -40.4490 o          1 T9C      -0.515000
     31 O18        -22.0500    -4.6890   -41.6980 oh         1 T9C      -0.568100
     32 O32        -17.8300    -7.2230   -38.4590 o          1 T9C      -0.736500
     33 O33        -12.8170   -10.0750   -40.5260 o          1 T9C      -0.744000
     34 O34        -12.4080    -9.1950   -42.4390 o          1 T9C      -0.744000
     35 O35        -17.6830    -9.3630   -38.6060 o          1 T9C      -0.736500
     36 H1         -20.7060    -2.3500   -48.1810 hc         1 T9C       0.032700
     37 H2         -20.6640    -0.6320   -47.7460 hc         1 T9C       0.032700
     38 H3         -19.1650    -1.4740   -48.1600 hc         1 T9C       0.032700
     39 H5         -17.4540    -4.6490   -41.7790 ha         1 T9C       0.121000
     40 H6         -19.4940    -8.3470   -41.0130 ha         1 T9C       0.153000
     41 H7         -21.6700    -7.1990   -41.1930 ha         1 T9C       0.094000
     42 H9         -18.1290    -3.1810   -39.2670 h4         1 T9C       0.065100
     43 H10        -16.3900    -6.4600   -43.2410 ha         1 T9C       0.062000
     44 H11        -14.2270    -7.6160   -43.3230 ha         1 T9C       0.106000
     45 H12        -15.0460    -9.4270   -39.4770 ha         1 T9C       0.136000
     46 H13        -21.7110    -0.9040   -45.4830 ha         1 T9C       0.104000
     47 H14        -17.8180    -3.7830   -44.1650 ha         1 T9C       0.134000
     48 H15        -15.8930    -0.3790   -41.2120 hn         1 T9C       0.360000
     49 H16        -22.2060    -1.0260   -42.7960 hn         1 T9C       0.152000
     50 H17        -22.7190    -5.3980   -41.5850 ho         1 T9C       0.448000
     51 H4         -18.1420    -3.1350   -46.5560 ha         1 T9C       0.104000
     52 H8         -17.7260    -0.9020   -42.9530 h4         1 T9C       0.148000
@<TRIPOS>BOND
     1     1     3 1   
     2     1    36 1   
     3     1    37 1   
     4     1    38 1   
     5     2     3 ar  
     6     2    25 ar  
     7     2    51 1   
     8     3    22 ar  
     9     4     5 ar  
    10     4     9 ar  
    11     4    20 1   
    12     5     6 ar  
    13     5    39 1   
    14     6     7 ar  
    15     6    13 1   
    16     7     8 ar  
    17     7    40 1   
    18     8     9 ar  
    19     8    41 1   
    20     9    31 1   
    21    10    11 2   
    22    10    27 1   
    23    10    52 1   
    24    11    12 1   
    25    11    20 1   
    26    12    28 2   
    27    12    42 1   
    28    13    14 ar  
    29    13    18 ar  
    30    14    15 ar  
    31    14    43 1   
    32    15    16 ar  
    33    15    44 1   
    34    16    17 ar  
    35    16    21 1   
    36    17    18 ar  
    37    17    45 1   
    38    18    19 1   
    39    19    32 1   
    40    19    35 1   
    41    20    24 1   
    42    20    26 1   
    43    21    33 1   
    44    21    34 1   
    45    22    23 ar  
    46    22    46 1   
    47    23    24 ar  
    48    23    29 1   
    49    24    25 ar  
    50    25    47 1   
    51    26    29 1   
    52    26    30 2   
    53    27    28 1   
    54    27    48 1   
    55    29    49 1   
    56    31    50 1   
@<TRIPOS>SUBSTRUCTURE
     1 T9C         1 TEMP              0 ****  ****    0 ROOT
