@<TRIPOS>MOLECULE
T9C
   52    56     1     0     0
SMALL
abcg2


@<TRIPOS>ATOM
      1 C1         -21.1340    -1.1780   -47.3910 c3         1 T9C      -0.039800
      2 C2         -19.5510    -2.6150   -46.0540 ca         1 T9C      -0.154000
      3 C3         -20.5980    -1.6920   -46.0820 ca         1 T9C      -0.063300
      4 C12        -19.3180    -4.5620   -41.9710 ca         1 T9C      -0.120300
      5 C13        -18.1550    -5.2530   -41.6520 ca         1 T9C      -0.068000
      6 C14        -18.1280    -6.6370   -41.4530 cp         1 T9C       0.023000
      7 C15        -19.3270    -7.3390   -41.5930 ca         1 T9C      -0.031000
      8 C16        -20.5000    -6.6770   -41.9210 ca         1 T9C      -0.201000
      9 C17        -20.5010    -5.3000   -42.1150 ca         1 T9C       0.102100
     10 C20        -17.0970    -1.7380   -42.5350 cc         1 T9C      -0.159000
     11 C21        -18.0470    -2.3770   -41.7610 cd         1 T9C      -0.190300
     12 C22        -17.5670    -2.2420   -40.4380 cd         1 T9C       0.284900
     13 C24        -16.8530    -7.3220   -41.1380 cp         1 T9C      -0.082000
     14 C25        -15.7000    -6.9790   -41.8560 ca         1 T9C      -0.147000
     15 C26        -14.4820    -7.5970   -41.6140 ca         1 T9C      -0.121000
     16 C27        -14.3770    -8.5980   -40.6480 ca         1 T9C      -0.133600
     17 C28        -15.5250    -8.9520   -39.9440 ca         1 T9C      -0.075000
     18 C29        -16.7530    -8.3260   -40.1570 ca         1 T9C      -0.107600
     19 C30        -17.9180    -8.7310   -39.2630 c          1 T9C       0.704600
     20 C10        -19.3180    -3.0580   -42.2210 c5         1 T9C       0.090900
     21 C31        -13.0430    -9.2890   -40.3730 c          1 T9C       0.707600
     22 C4         -21.1770    -1.2710   -44.8760 ca         1 T9C      -0.167000
     23 C5         -20.6860    -1.7910   -43.6930 ca         1 T9C      -0.010000
     24 C6         -19.6320    -2.7060   -43.6650 ca         1 T9C      -0.105300
     25 C7         -19.0650    -3.1290   -44.8470 ca         1 T9C      -0.048000
     26 C9         -20.4810    -2.3300   -41.4710 c          1 T9C       0.585000
     27 N19        -16.1500    -1.2820   -41.6880 na         1 T9C      -0.029200
     28 N23        -16.4150    -1.5790   -40.4000 nc         1 T9C      -0.530800
     29 N8         -21.1240    -1.5510   -42.3870 ns         1 T9C      -0.151000
     30 O11        -20.7330    -2.3980   -40.2830 o          1 T9C      -0.515000
     31 O18        -21.6360    -4.6250   -42.4560 oh         1 T9C      -0.568100
     32 O32        -18.3350    -7.8680   -38.4520 o          1 T9C      -0.736500
     33 O33        -13.0290   -10.1740   -39.4790 o          1 T9C      -0.744000
     34 O34        -12.0560    -8.9220   -41.0630 o          1 T9C      -0.744000
     35 O35        -18.3420    -9.9090   -39.3880 o          1 T9C      -0.736500
     36 H1         -22.0290    -1.7320   -47.6870 hc         1 T9C       0.032700
     37 H2         -21.4130    -0.1250   -47.3190 hc         1 T9C       0.032700
     38 H3         -20.3990    -1.2880   -48.1890 hc         1 T9C       0.032700
     39 H5         -17.2380    -4.6940   -41.5370 ha         1 T9C       0.121000
     40 H6         -19.3450    -8.4110   -41.4560 ha         1 T9C       0.153000
     41 H7         -21.4270    -7.2280   -42.0390 ha         1 T9C       0.094000
     42 H9         -18.0150    -2.6060   -39.5270 h4         1 T9C       0.065100
     43 H10        -15.7700    -6.2250   -42.6310 ha         1 T9C       0.062000
     44 H11        -13.6040    -7.3180   -42.1810 ha         1 T9C       0.106000
     45 H12        -15.4510    -9.7290   -39.1940 ha         1 T9C       0.136000
     46 H13        -21.9960    -0.5620   -44.8750 ha         1 T9C       0.104000
     47 H14        -18.2550    -3.8490   -44.8440 ha         1 T9C       0.134000
     48 H15        -15.3150    -0.7710   -41.9240 hn         1 T9C       0.360000
     49 H16        -21.9260    -0.9850   -42.1490 hn         1 T9C       0.152000
     50 H17        -22.3870    -5.2320   -42.4810 ho         1 T9C       0.448000
     51 H4         -19.1080    -2.9390   -46.9880 ha         1 T9C       0.104000
     52 H8         -17.0310    -1.5810   -43.5970 h4         1 T9C       0.148000
@<TRIPOS>BOND
     1     1     3 1   
     2     1    36 1   
     3     1    37 1   
     4     1    38 1   
     5     2     3 ar  
     6     2    25 ar  
     7     2    51 1   
     8     3    22 ar  
     9     4     5 ar  
    10     4     9 ar  
    11     4    20 1   
    12     5     6 ar  
    13     5    39 1   
    14     6     7 ar  
    15     6    13 1   
    16     7     8 ar  
    17     7    40 1   
    18     8     9 ar  
    19     8    41 1   
    20     9    31 1   
    21    10    11 2   
    22    10    27 1   
    23    10    52 1   
    24    11    12 1   
    25    11    20 1   
    26    12    28 2   
    27    12    42 1   
    28    13    14 ar  
    29    13    18 ar  
    30    14    15 ar  
    31    14    43 1   
    32    15    16 ar  
    33    15    44 1   
    34    16    17 ar  
    35    16    21 1   
    36    17    18 ar  
    37    17    45 1   
    38    18    19 1   
    39    19    32 1   
    40    19    35 1   
    41    20    24 1   
    42    20    26 1   
    43    21    33 1   
    44    21    34 1   
    45    22    23 ar  
    46    22    46 1   
    47    23    24 ar  
    48    23    29 1   
    49    24    25 ar  
    50    25    47 1   
    51    26    29 1   
    52    26    30 2   
    53    27    28 1   
    54    27    48 1   
    55    29    49 1   
    56    31    50 1   
@<TRIPOS>SUBSTRUCTURE
     1 T9C         1 TEMP              0 ****  ****    0 ROOT
