@<TRIPOS>MOLECULE
T9D
   44    47     1     0     0
SMALL
No Charge or Current Charge


@<TRIPOS>ATOM
      1 C5         107.8320   167.4560    22.0710 cc         1 T9D      -0.311400
      2 C6        -106.5900   167.8630    22.6010 cd         1 T9D       0.038300
      3 C7         106.5070   168.7370    23.7520 cd         1 T9D       0.319500
      4 C10       -109.0600   167.8560    22.8270 c          1 T9D       0.553200
      5 N12        105.4120   167.3820    22.0170 na         1 T9D       0.013300
      6 C13       -105.1190   166.0390    21.7380 cc         1 T9D      -0.185100
      7 C15        102.9610   164.8300    20.9990 ca         1 T9D      -0.043000
      8 C17       -101.0140   166.3270    20.8350 ca         1 T9D       0.152100
      9 C20        104.2080   168.0940    21.9310 cc         1 T9D      -0.234100
     10 C22        -99.0140   167.7210    20.4050 c6         1 T9D       0.178300
     11 C24        -98.6610   169.7310    18.8770 c6         1 T9D       0.151800
     12 C26        -96.7450   168.8510    20.1630 c6         1 T9D       0.151800
     13 F1         108.3170   165.3630    21.0390 f          1 T9D      -0.098333
     14 C2        -108.1160   166.6750    20.7820 c3         1 T9D       0.379200
     15 F3         109.2100   167.1210    20.1230 f          1 T9D      -0.098333
     16 F4        -107.1180   166.7560    19.8740 f          1 T9D      -0.098333
     17 N8         107.6080   169.1370    24.3800 nc         1 T9D      -0.372300
     18 N9        -108.8070   168.6780    23.9070 ns         1 T9D      -0.218900
     19 O11        110.2040   167.5160    22.5670 o          1 T9D      -0.499000
     20 C14       -103.7220   165.9400    21.3830 ca         1 T9D      -0.111000
     21 C16        101.5920   165.0390    20.7250 ca         1 T9D      -0.127000
     22 C18       -101.8150   167.4270    21.2420 ca         1 T9D      -0.194000
     23 C19        103.1680   167.1880    21.5030 ca         1 T9D      -0.041000
     24 O21        -99.6640   166.4410    20.5570 os         1 T9D      -0.353100
     25 C23        -99.4460   168.4160    19.0870 c6         1 T9D      -0.130900
     26 N25        -97.2000   169.4830    18.9010 n7         1 T9D      -0.848400
     27 C27        -97.4810   167.5150    20.4040 c6         1 T9D      -0.130900
     28 H1        -105.5770   169.0830    24.1830 h4         1 T9D       0.069800
     29 H2         105.8720   165.2710    21.8690 h4         1 T9D       0.229000
     30 H3        -103.4070   163.8420    20.9160 ha         1 T9D       0.118000
     31 H4         104.1730   169.1530    22.1580 h4         1 T9D       0.225000
     32 H5         -99.2630   168.3580    21.2660 h1         1 T9D       0.045700
     33 H6         -98.9280   170.4480    19.6680 h1         1 T9D       0.054200
     34 H7         -98.9460   170.1810    17.9140 h1         1 T9D       0.054200
     35 H8         -95.6590   168.6730    20.1190 h1         1 T9D       0.054200
     36 H9         -96.9340   169.5330    21.0060 h1         1 T9D       0.054200
     37 H10        109.6390   168.9730    24.4120 hn         1 T9D       0.366500
     38 H11       -100.9720   164.2000    20.4240 ha         1 T9D       0.125000
     39 H12        101.4170   168.4290    21.3590 ha         1 T9D       0.119000
     40 H13       -100.5210   168.6360    19.0990 hc         1 T9D       0.058200
     41 H14        -99.2740   167.7420    18.2370 hc         1 T9D       0.058200
     42 H15        -96.9660   168.8550    18.1220 hn         1 T9D       0.407000
     43 H17        -97.2010   166.7910    19.6260 hc         1 T9D       0.058200
     44 H18        -97.1630   167.0870    21.3630 hc         1 T9D       0.058200
@<TRIPOS>BOND
     1     1     2 2   
     2     1     4 1   
     3     1    14 1   
     4     2     3 1   
     5     2     5 1   
     6     3    17 2   
     7     3    28 1   
     8     4    18 1   
     9     4    19 2   
    10     5     6 1   
    11     5     9 1   
    12     6    20 2   
    13     6    29 1   
    14     7    20 ar  
    15     7    21 ar  
    16     7    30 1   
    17     8    21 ar  
    18     8    22 ar  
    19     8    24 1   
    20     9    23 2   
    21     9    31 1   
    22    10    24 1   
    23    10    25 1   
    24    10    27 1   
    25    10    32 1   
    26    11    25 1   
    27    11    26 1   
    28    11    33 1   
    29    11    34 1   
    30    12    26 1   
    31    12    27 1   
    32    12    35 1   
    33    12    36 1   
    34    13    14 1   
    35    14    15 1   
    36    14    16 1   
    37    17    18 1   
    38    18    37 1   
    39    20    23 ar  
    40    21    38 1   
    41    22    23 ar  
    42    22    39 1   
    43    25    40 1   
    44    25    41 1   
    45    26    42 1   
    46    27    43 1   
    47    27    44 1   
@<TRIPOS>SUBSTRUCTURE
     1 T9D         1 TEMP              0 ****  ****    0 ROOT
