@<TRIPOS>MOLECULE
T9D
   44    47     1     0     0
SMALL
bcc


@<TRIPOS>ATOM
      1 C5        -107.7730   167.5060    22.0390 cc         1 T9D      -0.311400
      2 C6        -106.5660   167.7290    22.6230 cd         1 T9D       0.038300
      3 C7        -106.5130   168.4630    23.8480 cd         1 T9D       0.319500
      4 C10       -108.9820   167.9040    22.7500 c          1 T9D       0.695700
      5 N12       -105.3450   167.2580    22.1280 na         1 T9D       0.013300
      6 C13       -105.0410   165.9390    21.9560 cc         1 T9D      -0.135100
      7 C15       -102.8530   164.8020    21.2460 ca         1 T9D      -0.061000
      8 C17       -101.0820   166.4250    20.8010 ca         1 T9D       0.152100
      9 C20       -104.2590   168.0590    21.8720 cc         1 T9D      -0.184100
     10 C22        -99.1370   167.7520    20.3010 c6         1 T9D       0.155100
     11 C24        -98.6330   169.7080    18.8250 c6         1 T9D       0.151800
     12 C26        -96.8730   168.8050    20.1930 c6         1 T9D       0.151800
     13 F1        -108.4990   165.6550    20.7870 f          1 T9D      -0.219633
     14 C2        -107.9910   166.8870    20.6860 c3         1 T9D       0.743100
     15 F3        -108.8440   167.6200    19.9680 f          1 T9D      -0.219633
     16 F4        -106.8750   166.8000    19.9630 f          1 T9D      -0.219633
     17 N8        -107.5720   168.8830    24.4470 nc         1 T9D      -0.372300
     18 N9        -108.7370   168.6010    23.9090 ns         1 T9D      -0.285900
     19 O11       -110.1210   167.6650    22.3920 o          1 T9D      -0.574500
     20 C14       -103.7210   165.8810    21.5640 ca         1 T9D      -0.111000
     21 C16       -101.5770   165.0770    20.8760 ca         1 T9D      -0.145000
     22 C18       -101.8840   167.4900    21.1010 ca         1 T9D      -0.212000
     23 C19       -103.2240   167.2270    21.5020 ca         1 T9D      -0.041000
     24 O21        -99.7880   166.4920    20.4280 os         1 T9D      -0.329900
     25 C23        -99.4680   168.4350    18.9800 c6         1 T9D      -0.130900
     26 N25        -97.2020   169.5000    18.9600 n7         1 T9D      -0.793200
     27 C27        -97.6420   167.4990    20.3990 c6         1 T9D      -0.130900
     28 H1        -105.5620   168.6730    24.3180 h4         1 T9D       0.069800
     29 H2        -105.7600   165.1610    22.1550 h4         1 T9D       0.179000
     30 H3        -103.2030   163.7790    21.2960 ha         1 T9D       0.136000
     31 H4        -104.3260   169.1320    21.9390 h4         1 T9D       0.175000
     32 H5         -99.4320   168.4020    21.1360 h1         1 T9D       0.045700
     33 H6         -98.9450   170.4400    19.5780 h1         1 T9D       0.054200
     34 H7         -98.8330   170.1620    17.8530 h1         1 T9D       0.054200
     35 H8         -95.8000   168.6090    20.2120 h1         1 T9D       0.054200
     36 H9         -97.0790   169.4820    21.0290 h1         1 T9D       0.054200
     37 H10       -109.5390   168.9180    24.4400 hn         1 T9D       0.366500
     38 H11       -100.8960   164.2720    20.6290 ha         1 T9D       0.143000
     39 H12       -101.5390   168.5130    21.0460 ha         1 T9D       0.137000
     40 H13       -100.5300   168.6840    18.9120 hc         1 T9D       0.058200
     41 H14        -99.2480   167.7450    18.1580 hc         1 T9D       0.058200
     42 H15        -96.8700   168.9560    18.1720 hn         1 T9D       0.351800
     43 H17        -97.3420   166.7720    19.6380 hc         1 T9D       0.058200
     44 H18        -97.3930   167.0740    21.3750 hc         1 T9D       0.058200
@<TRIPOS>BOND
     1     1     2 2   
     2     1     4 1   
     3     1    14 1   
     4     2     3 1   
     5     2     5 1   
     6     3    17 2   
     7     3    28 1   
     8     4    18 1   
     9     4    19 2   
    10     5     6 1   
    11     5     9 1   
    12     6    20 2   
    13     6    29 1   
    14     7    20 ar  
    15     7    21 ar  
    16     7    30 1   
    17     8    21 ar  
    18     8    22 ar  
    19     8    24 1   
    20     9    23 2   
    21     9    31 1   
    22    10    24 1   
    23    10    25 1   
    24    10    27 1   
    25    10    32 1   
    26    11    25 1   
    27    11    26 1   
    28    11    33 1   
    29    11    34 1   
    30    12    26 1   
    31    12    27 1   
    32    12    35 1   
    33    12    36 1   
    34    13    14 1   
    35    14    15 1   
    36    14    16 1   
    37    17    18 1   
    38    18    37 1   
    39    20    23 ar  
    40    21    38 1   
    41    22    23 ar  
    42    22    39 1   
    43    25    40 1   
    44    25    41 1   
    45    26    42 1   
    46    27    43 1   
    47    27    44 1   
@<TRIPOS>SUBSTRUCTURE
     1 T9D         1 TEMP              0 ****  ****    0 ROOT
