@<TRIPOS>MOLECULE
T9E
   16    15     1     0     0
SMALL
bcc


@<TRIPOS>ATOM
      1 N           -0.7910     1.3970     1.4730 n8         1 T9E      -0.891800
      2 CA          -1.0290     1.0020     0.0960 c3         1 T9E       0.015500
      3 CB           0.2840     0.8430    -0.6790 c3         1 T9E       0.160400
      4 CG2          1.1570     2.0830    -0.6300 c3         1 T9E      -0.090100
      5 SEG          1.2560    -0.7450     0.0280 sh         1 T9E      -0.492900
      6 C           -1.8720    -0.2830    -0.0890 c          1 T9E       0.904600
      7 O           -1.8250    -1.1180     0.8380 o          1 T9E      -0.827300
      8 H           -1.6450     1.7970     1.8440 hn         1 T9E       0.335300
      9 H2          -0.6430     0.5560     2.0190 hn         1 T9E       0.335300
     10 HA          -1.5510     1.8270    -0.4030 h1         1 T9E       0.038700
     11 HB           0.0350     0.6140    -1.7170 h1         1 T9E       0.070700
     12 HG21         2.0590     1.9660    -1.2320 hc         1 T9E       0.028367
     13 HG22         0.6010     2.9300    -1.0400 hc         1 T9E       0.028367
     14 HG23         1.4440     2.3310     0.3890 hc         1 T9E       0.028367
     15 HG1          2.5240    -0.3940    -0.5990 hs         1 T9E       0.184800
     16 OXT         -2.4850    -0.3990    -1.1690 o          1 T9E      -0.827300
@<TRIPOS>BOND
     1     1     2 1   
     2     1     8 1   
     3     1     9 1   
     4     2     3 1   
     5     2     6 1   
     6     2    10 1   
     7     3     4 1   
     8     3     5 1   
     9     3    11 1   
    10     4    12 1   
    11     4    13 1   
    12     4    14 1   
    13     5    15 1   
    14     6     7 1   
    15     6    16 1   
@<TRIPOS>SUBSTRUCTURE
     1 T9E         1 TEMP              0 ****  ****    0 ROOT
