@<TRIPOS>MOLECULE
T9E
   16    15     1     0     0
SMALL
No Charge or Current Charge


@<TRIPOS>ATOM
      1 N           -0.8320     1.3830     1.6020 n8         1 T9E      -0.891800
      2 CA          -1.0050     0.9940     0.1410 c3         1 T9E       0.015500
      3 CB           0.3650     0.7970    -0.5760 c3         1 T9E       0.160400
      4 CG2          1.1570     2.1170    -0.7110 c3         1 T9E      -0.090100
      5 SEG          1.4100    -0.5320     0.2000 sh         1 T9E      -0.492900
      6 C           -1.9440    -0.2420    -0.1830 c          1 T9E       0.904600
      7 O           -2.3290    -0.9590     0.7370 o          1 T9E      -0.827300
      8 H           -1.7540     1.4020     2.0500 hn         1 T9E       0.335300
      9 H2          -0.3460     0.6140     2.0760 hn         1 T9E       0.335300
     10 HA          -1.5000     1.8480    -0.3410 h1         1 T9E       0.038700
     11 HB           0.1510     0.4620    -1.6010 h1         1 T9E       0.070700
     12 HG21         2.0670     1.9570    -1.3020 hc         1 T9E       0.028367
     13 HG22         0.5540     2.8800    -1.2170 hc         1 T9E       0.028367
     14 HG23         1.4520     2.5030     0.2710 hc         1 T9E       0.028367
     15 HG1          2.4320    -0.4450    -0.6860 hs         1 T9E       0.184800
     16 OXT         -2.3600    -0.3740    -1.3300 o          1 T9E      -0.827300
@<TRIPOS>BOND
     1     1     2 1   
     2     1     8 1   
     3     1     9 1   
     4     2     3 1   
     5     2     6 1   
     6     2    10 1   
     7     3     4 1   
     8     3     5 1   
     9     3    11 1   
    10     4    12 1   
    11     4    13 1   
    12     4    14 1   
    13     5    15 1   
    14     6     7 1   
    15     6    16 1   
@<TRIPOS>SUBSTRUCTURE
     1 T9E         1 TEMP              0 ****  ****    0 ROOT
