@<TRIPOS>MOLECULE
T9F
   29    30     1     0     0
SMALL
No Charge or Current Charge


@<TRIPOS>ATOM
      1 C4           7.6550   -22.8770   -17.7630 ca         1 T9F      -0.081800
      2 C5           8.9910   -22.7120   -17.3430 ca         1 T9F      -0.066000
      3 C6           9.3880   -23.1020   -16.0520 ca         1 T9F      -0.169000
      4 C7           7.2240   -22.4670   -19.1310 ce         1 T9F      -0.043400
      5 C8           6.4820   -23.2850   -19.9170 c2         1 T9F      -0.221200
      6 C10          7.3340   -20.8660   -21.1290 c6         1 T9F       0.157800
      7 N            6.0360   -21.4580   -21.5190 n7         1 T9F      -0.858400
      8 C           10.1120   -23.9360   -13.3600 c3         1 T9F       0.148900
      9 C1           8.4480   -23.6650   -15.1620 ca         1 T9F       0.137100
     10 C11          7.5930   -21.0550   -19.6150 c6         1 T9F      -0.033200
     11 C2           7.1190   -23.8320   -15.5800 ca         1 T9F      -0.169000
     12 C3           6.7230   -23.4430   -16.8710 ca         1 T9F      -0.066000
     13 C9           6.0120   -22.9230   -21.3180 c6         1 T9F       0.192000
     14 H1           9.7310   -22.2930   -18.0210 ha         1 T9F       0.113000
     15 H2          10.4260   -22.9630   -15.7630 ha         1 T9F       0.121500
     16 H3           6.2030   -24.2810   -19.5750 ha         1 T9F       0.175000
     17 H4           8.1410   -21.3480   -21.7030 h1         1 T9F       0.031200
     18 H5           7.3460   -19.7940   -21.3740 h1         1 T9F       0.031200
     19 H6           5.8620   -21.2640   -22.5130 hn         1 T9F       0.409000
     20 H8          10.1540   -24.3130   -12.3300 h1         1 T9F       0.041367
     21 H9          10.8250   -24.5130   -13.9620 h1         1 T9F       0.041367
     22 H10         10.4280   -22.8850   -13.3500 h1         1 T9F       0.041367
     23 H11          8.6430   -20.8220   -19.4000 hc         1 T9F       0.052700
     24 H12          6.9940   -20.3250   -19.0540 hc         1 T9F       0.052700
     25 H13          6.3900   -24.2650   -14.8990 ha         1 T9F       0.121500
     26 H14          5.6870   -23.5740   -17.1770 ha         1 T9F       0.113000
     27 H15          4.9930   -23.3020   -21.4850 h1         1 T9F       0.037700
     28 H16          6.6720   -23.4050   -22.0550 h1         1 T9F       0.037700
     29 O            8.7780   -24.0650   -13.8830 os         1 T9F      -0.349100
@<TRIPOS>BOND
     1     1     2 ar  
     2     1     4 1   
     3     1    12 ar  
     4     2     3 ar  
     5     2    14 1   
     6     3     9 ar  
     7     3    15 1   
     8     4     5 2   
     9     4    10 1   
    10     5    13 1   
    11     5    16 1   
    12     6     7 1   
    13     6    10 1   
    14     6    17 1   
    15     6    18 1   
    16     7    13 1   
    17     7    19 1   
    18     8    20 1   
    19     8    21 1   
    20     8    22 1   
    21     8    29 1   
    22     9    11 ar  
    23     9    29 1   
    24    10    23 1   
    25    10    24 1   
    26    11    12 ar  
    27    11    25 1   
    28    12    26 1   
    29    13    27 1   
    30    13    28 1   
@<TRIPOS>SUBSTRUCTURE
     1 T9F         1 TEMP              0 ****  ****    0 ROOT
