@<TRIPOS>MOLECULE
T9F
   29    30     1     0     0
SMALL
abcg2


@<TRIPOS>ATOM
      1 C4           7.6640   -22.8840   -17.7780 ca         1 T9F      -0.081800
      2 C5           8.9190   -22.5530   -17.2620 ca         1 T9F      -0.066000
      3 C6           9.3330   -22.9660   -15.9970 ca         1 T9F      -0.169000
      4 C7           7.2340   -22.4620   -19.1310 ce         1 T9F      -0.043400
      5 C8           6.4070   -23.2110   -19.8710 c2         1 T9F      -0.221200
      6 C10          7.4590   -20.9890   -21.1570 c6         1 T9F       0.157800
      7 N            6.0730   -21.3630   -21.4330 n7         1 T9F      -0.858400
      8 C           10.0560   -23.8540   -13.4140 c3         1 T9F       0.148900
      9 C1           8.4750   -23.7240   -15.2030 ca         1 T9F       0.137100
     10 C11          7.7420   -21.1430   -19.6670 c6         1 T9F      -0.033200
     11 C2           7.2080   -24.0550   -15.6920 ca         1 T9F      -0.169000
     12 C3           6.8150   -23.6380   -16.9500 ca         1 T9F      -0.066000
     13 C9           5.8680   -22.7920   -21.2050 c6         1 T9F       0.192000
     14 H1           9.6130   -21.9730   -17.8550 ha         1 T9F       0.113000
     15 H2          10.3170   -22.6910   -15.6490 ha         1 T9F       0.121500
     16 H3           6.0870   -24.1840   -19.5150 ha         1 T9F       0.175000
     17 H4           8.1700   -21.6150   -21.7220 h1         1 T9F       0.031200
     18 H5           7.6150   -19.9550   -21.4660 h1         1 T9F       0.031200
     19 H6           5.8430   -21.1420   -22.3950 hn         1 T9F       0.409000
     20 H8          10.0840   -24.3040   -12.4240 h1         1 T9F       0.041367
     21 H9          10.8560   -24.2730   -14.0300 h1         1 T9F       0.041367
     22 H10         10.1900   -22.7730   -13.3290 h1         1 T9F       0.041367
     23 H11          8.8180   -21.0560   -19.5030 hc         1 T9F       0.052700
     24 H12          7.2790   -20.3240   -19.1060 hc         1 T9F       0.052700
     25 H13          6.5370   -24.6280   -15.0650 ha         1 T9F       0.121500
     26 H14          5.8190   -23.8860   -17.2950 ha         1 T9F       0.113000
     27 H15          4.7960   -23.0090   -21.2470 h1         1 T9F       0.037700
     28 H16          6.3380   -23.4120   -21.9900 h1         1 T9F       0.037700
     29 O            8.7740   -24.1720   -13.9530 os         1 T9F      -0.349100
@<TRIPOS>BOND
     1     1     2 ar  
     2     1     4 1   
     3     1    12 ar  
     4     2     3 ar  
     5     2    14 1   
     6     3     9 ar  
     7     3    15 1   
     8     4     5 2   
     9     4    10 1   
    10     5    13 1   
    11     5    16 1   
    12     6     7 1   
    13     6    10 1   
    14     6    17 1   
    15     6    18 1   
    16     7    13 1   
    17     7    19 1   
    18     8    20 1   
    19     8    21 1   
    20     8    22 1   
    21     8    29 1   
    22     9    11 ar  
    23     9    29 1   
    24    10    23 1   
    25    10    24 1   
    26    11    12 ar  
    27    11    25 1   
    28    12    26 1   
    29    13    27 1   
    30    13    28 1   
@<TRIPOS>SUBSTRUCTURE
     1 T9F         1 TEMP              0 ****  ****    0 ROOT
