@<TRIPOS>MOLECULE
T9G
   24    24     1     0     0
SMALL
abcg2


@<TRIPOS>ATOM
      1 C4          20.6420    -2.3160    60.1210 ca         1 T9G      -0.053000
      2 C5          21.1060    -1.9440    61.3750 ca         1 T9G      -0.153000
      3 C6          21.3230    -0.6010    61.6450 ca         1 T9G      -0.068000
      4 C7          21.0810     0.3510    60.6680 ca         1 T9G      -0.211000
      5 C8          20.6230    -0.0330    59.4080 ca         1 T9G       0.139100
      6 O           20.3900     0.8790    58.4390 oh         1 T9G      -0.540100
      7 C3          20.3940    -1.3820    59.1190 ca         1 T9G      -0.115300
      8 C2          19.9250    -1.8440    57.7560 c3         1 T9G       0.215800
      9 N           18.8920    -2.8640    57.9130 n8         1 T9G      -1.003200
     10 C1          21.0840    -2.4470    56.9530 c3         1 T9G      -0.070400
     11 C           22.2180    -1.4730    56.6760 c3         1 T9G      -0.087100
     12 H1          20.4590    -3.3610    59.9040 ha         1 T9G       0.132000
     13 H2          21.2920    -2.6950    62.1320 ha         1 T9G       0.116000
     14 H3          21.6820    -0.2850    62.6170 ha         1 T9G       0.111000
     15 H4          21.2500     1.4010    60.8830 ha         1 T9G       0.110000
     16 H5          20.5630     1.7670    58.7720 ho         1 T9G       0.463000
     17 H6          19.5590    -0.9740    57.1970 h1         1 T9G       0.037700
     18 H7          18.0890    -2.4630    58.3830 hn         1 T9G       0.395000
     19 H8          18.5640    -3.1380    56.9940 hn         1 T9G       0.395000
     20 H10         20.6850    -2.8130    56.0020 hc         1 T9G       0.042200
     21 H11         21.4580    -3.3230    57.4910 hc         1 T9G       0.042200
     22 H12         22.9940    -1.9450    56.0720 hc         1 T9G       0.033700
     23 H13         21.8650    -0.5960    56.1310 hc         1 T9G       0.033700
     24 H14         22.6860    -1.1230    57.5970 hc         1 T9G       0.033700
@<TRIPOS>BOND
     1     1     2 ar  
     2     1     7 ar  
     3     1    12 1   
     4     2     3 ar  
     5     2    13 1   
     6     3     4 ar  
     7     3    14 1   
     8     4     5 ar  
     9     4    15 1   
    10     5     6 1   
    11     5     7 ar  
    12     6    16 1   
    13     7     8 1   
    14     8     9 1   
    15     8    10 1   
    16     8    17 1   
    17     9    18 1   
    18     9    19 1   
    19    10    11 1   
    20    10    20 1   
    21    10    21 1   
    22    11    22 1   
    23    11    23 1   
    24    11    24 1   
@<TRIPOS>SUBSTRUCTURE
     1 T9G         1 TEMP              0 ****  ****    0 ROOT
