@<TRIPOS>MOLECULE
T9G
   24    24     1     0     0
SMALL
No Charge or Current Charge


@<TRIPOS>ATOM
      1 C4          20.7780    -2.3310    60.0960 ca         1 T9G      -0.053000
      2 C5          21.2250    -1.9260    61.3650 ca         1 T9G      -0.153000
      3 C6          21.3230    -0.5620    61.6760 ca         1 T9G      -0.068000
      4 C7          20.9740     0.3990    60.7130 ca         1 T9G      -0.211000
      5 C8          20.5260     0.0000    59.4420 ca         1 T9G       0.139100
      6 O           20.2050     0.9660    58.5320 oh         1 T9G      -0.540100
      7 C3          20.4190    -1.3740    59.1200 ca         1 T9G      -0.115300
      8 C2          19.9510    -1.8450    57.7360 c3         1 T9G       0.215800
      9 N           18.7970    -2.7530    57.8640 n8         1 T9G      -1.003200
     10 C1          21.0800    -2.5290    56.9250 c3         1 T9G      -0.070400
     11 C           22.2950    -1.6150    56.6600 c3         1 T9G      -0.087100
     12 H1          20.7060    -3.3920    59.8690 ha         1 T9G       0.132000
     13 H2          21.4970    -2.6730    62.1080 ha         1 T9G       0.116000
     14 H3          21.6710    -0.2500    62.6590 ha         1 T9G       0.111000
     15 H4          21.0560     1.4540    60.9620 ha         1 T9G       0.110000
     16 H5          20.3460     1.8420    58.9500 ho         1 T9G       0.463000
     17 H6          19.6040    -0.9820    57.1520 h1         1 T9G       0.037700
     18 H7          18.0290    -2.2380    58.3090 hn         1 T9G       0.395000
     19 H8          18.4370    -2.9610    56.9270 hn         1 T9G       0.395000
     20 H10         20.6790    -2.8590    55.9590 hc         1 T9G       0.042200
     21 H11         21.4210    -3.4300    57.4500 hc         1 T9G       0.042200
     22 H12         23.0370    -2.1360    56.0420 hc         1 T9G       0.033700
     23 H13         21.9880    -0.7040    56.1320 hc         1 T9G       0.033700
     24 H14         22.7810    -1.3230    57.5990 hc         1 T9G       0.033700
@<TRIPOS>BOND
     1     1     2 ar  
     2     1     7 ar  
     3     1    12 1   
     4     2     3 ar  
     5     2    13 1   
     6     3     4 ar  
     7     3    14 1   
     8     4     5 ar  
     9     4    15 1   
    10     5     6 1   
    11     5     7 ar  
    12     6    16 1   
    13     7     8 1   
    14     8     9 1   
    15     8    10 1   
    16     8    17 1   
    17     9    18 1   
    18     9    19 1   
    19    10    11 1   
    20    10    20 1   
    21    10    21 1   
    22    11    22 1   
    23    11    23 1   
    24    11    24 1   
@<TRIPOS>SUBSTRUCTURE
     1 T9G         1 TEMP              0 ****  ****    0 ROOT
