@<TRIPOS>MOLECULE
T9H
   73    78     1     0     0
SMALL
No Charge or Current Charge


@<TRIPOS>ATOM
      1 O4           4.2130    -2.6890    -0.9340 o          1 T9H      -0.561100
      2 C6           4.9910    -1.7930    -0.6170 c          1 T9H       0.602100
      3 N2           6.3670    -1.9610    -0.5150 ns         1 T9H      -0.138000
      4 C5           7.2090    -3.0850    -0.7330 ca         1 T9H       0.024000
      5 C4           8.5900    -2.9360    -0.5270 ca         1 T9H      -0.208500
      6 C3           9.4480    -4.0270    -0.7350 ca         1 T9H       0.356900
      7 N1           9.0080    -5.2420    -1.1320 nb         1 T9H      -0.684000
      8 C2           7.6800    -5.3920    -1.3330 ca         1 T9H       0.356900
      9 C1           6.7540    -4.3520    -1.1480 ca         1 T9H      -0.208500
     10 C7           4.5060    -0.3530    -0.2830 c3         1 T9H       0.043700
     11 C23          4.8860     0.6410    -1.4120 c3         1 T9H      -0.010200
     12 C24          4.4640     2.0610    -1.1360 cc         1 T9H      -0.153400
     13 C27          5.0580     2.9660    -0.1930 ca         1 T9H      -0.093800
     14 C28          6.1500     2.7920     0.6690 ca         1 T9H      -0.064000
     15 C29          6.5170     3.8730     1.4990 ca         1 T9H      -0.134000
     16 C30          5.7930     5.0890     1.4490 ca         1 T9H      -0.088000
     17 C31          4.6990     5.2300     0.5680 ca         1 T9H      -0.126000
     18 C26          4.3580     4.1390    -0.2440 ca         1 T9H      -0.047200
     19 N6           3.3360     4.0600    -1.1700 na         1 T9H      -0.221700
     20 C25          3.4110     2.7580    -1.7230 cd         1 T9H      -0.159100
     21 N3           3.0410    -0.3340    -0.0470 ns         1 T9H      -0.489900
     22 C8           2.4070     0.3450     0.9710 c          1 T9H       0.631700
     23 O3           3.0460     0.9030     1.8500 o          1 T9H      -0.587100
     24 C9           0.8960     0.3600     0.9090 ca         1 T9H      -0.238600
     25 C22          0.1240     0.7470     2.0290 ca         1 T9H       0.270000
     26 F            0.7030     1.0810     3.2040 f          1 T9H      -0.154000
     27 C21         -1.2750     0.7690     1.9670 ca         1 T9H      -0.238000
     28 C12         -1.9450     0.4130     0.7940 ca         1 T9H       0.370000
     29 C11         -1.1920     0.0300    -0.3270 ca         1 T9H      -0.215000
     30 C10          0.2110     0.0030    -0.2770 ca         1 T9H      -0.024000
     31 N4          -3.3550     0.4430     0.7610 nh         1 T9H      -0.804400
     32 C20         -4.1300    -0.4430    -0.1660 c6         1 T9H       0.209800
     33 C19         -5.6020    -0.6600     0.3050 c6         1 T9H       0.179300
     34 N5          -6.3160     0.6210     0.5740 n3         1 T9H      -0.712500
     35 C14         -5.5500     1.4580     1.5400 c6         1 T9H       0.179300
     36 C13         -4.0810     1.7130     1.0830 c6         1 T9H       0.209800
     37 S1          -7.9630     0.4580     0.9460 sy         1 T9H       1.195600
     38 O1          -8.0390    -0.1060     2.2980 o          1 T9H      -0.531500
     39 O2          -8.5720     1.7470     0.6040 o          1 T9H      -0.531500
     40 C15         -8.6610    -0.7260    -0.1710 cc         1 T9H      -0.486500
     41 S2          -9.0270    -0.2890    -1.8270 ss         1 T9H       0.331000
     42 C18         -9.5970    -1.9240    -2.1520 cc         1 T9H      -0.214000
     43 C17         -9.4930    -2.7170    -1.0360 cd         1 T9H      -0.157000
     44 C16         -8.9600    -2.0390     0.0930 cd         1 T9H       0.009000
     45 H2           6.8670    -1.1280    -0.2340 hn         1 T9H       0.155000
     46 H7           5.0220    -0.0520     0.6370 h1         1 T9H       0.070700
     47 H4           9.0080    -1.9850    -0.2080 ha         1 T9H       0.136000
     48 H1           5.7070    -4.5590    -1.3330 ha         1 T9H       0.136000
     49 H3          10.5220    -3.9270    -0.5790 h4         1 T9H       0.017100
     50 HA           7.3470    -6.3780    -1.6540 h4         1 T9H       0.017100
     51 H231         5.9710     0.6170    -1.5710 hc         1 T9H       0.063700
     52 H232         4.4340     0.3020    -2.3530 hc         1 T9H       0.063700
     53 HB           2.4480    -0.8340    -0.6970 hn         1 T9H       0.328500
     54 H25          2.7110     2.4210    -2.4840 h4         1 T9H       0.213000
     55 H28          6.7010     1.8550     0.7000 ha         1 T9H       0.109000
     56 H29          7.3590     3.7720     2.1790 ha         1 T9H       0.114000
     57 H30          6.0820     5.9180     2.0910 ha         1 T9H       0.113000
     58 H31          4.1380     6.1610     0.5220 ha         1 T9H       0.115000
     59 H6           2.6670     4.7880    -1.4060 hn         1 T9H       0.352000
     60 H10          0.7470    -0.2780    -1.1800 ha         1 T9H       0.117000
     61 H21         -1.8400     1.0510     2.8480 ha         1 T9H       0.135000
     62 H11         -1.6890    -0.2360    -1.2550 ha         1 T9H       0.118000
     63 H201        -4.1490    -0.0010    -1.1730 h1         1 T9H       0.056450
     64 H202        -3.6460    -1.4270    -0.2480 h1         1 T9H       0.056450
     65 H131        -3.5640     2.2710     1.8770 h1         1 T9H       0.056450
     66 H132        -4.1000     2.3610     0.1940 h1         1 T9H       0.056450
     67 H191        -6.1170    -1.2420    -0.4720 h1         1 T9H       0.065950
     68 H192        -5.5870    -1.2820     1.2130 h1         1 T9H       0.065950
     69 H141        -6.0390     2.4330     1.6790 h1         1 T9H       0.065950
     70 H142        -5.5230     0.9710     2.5270 h1         1 T9H       0.065950
     71 H16         -8.8060    -2.5150     1.0590 ha         1 T9H       0.150000
     72 H18         -9.9630    -2.1730    -3.1400 h4         1 T9H       0.154000
     73 H17         -9.7880    -3.7620    -1.0160 ha         1 T9H       0.142000
@<TRIPOS>BOND
     1     1     2 2   
     2     2     3 1   
     3     2    10 1   
     4     3     4 1   
     5     3    45 1   
     6     4     5 ar  
     7     4     9 ar  
     8     5     6 ar  
     9     5    47 1   
    10     6     7 ar  
    11     6    49 1   
    12     7     8 ar  
    13     8     9 ar  
    14     8    50 1   
    15     9    48 1   
    16    10    11 1   
    17    10    21 1   
    18    10    46 1   
    19    11    12 1   
    20    11    51 1   
    21    11    52 1   
    22    12    13 1   
    23    12    20 2   
    24    13    14 ar  
    25    13    18 ar  
    26    14    15 ar  
    27    14    55 1   
    28    15    16 ar  
    29    15    56 1   
    30    16    17 ar  
    31    16    57 1   
    32    17    18 ar  
    33    17    58 1   
    34    18    19 1   
    35    19    20 1   
    36    19    59 1   
    37    20    54 1   
    38    21    22 1   
    39    21    53 1   
    40    22    23 2   
    41    22    24 1   
    42    24    25 ar  
    43    24    30 ar  
    44    25    26 1   
    45    25    27 ar  
    46    27    28 ar  
    47    27    61 1   
    48    28    29 ar  
    49    28    31 1   
    50    29    30 ar  
    51    29    62 1   
    52    30    60 1   
    53    31    32 1   
    54    31    36 1   
    55    32    33 1   
    56    32    63 1   
    57    32    64 1   
    58    33    34 1   
    59    33    67 1   
    60    33    68 1   
    61    34    35 1   
    62    34    37 1   
    63    35    36 1   
    64    35    69 1   
    65    35    70 1   
    66    36    65 1   
    67    36    66 1   
    68    37    38 2   
    69    37    39 2   
    70    37    40 1   
    71    40    41 1   
    72    40    44 2   
    73    41    42 1   
    74    42    43 2   
    75    42    72 1   
    76    43    44 1   
    77    43    73 1   
    78    44    71 1   
@<TRIPOS>SUBSTRUCTURE
     1 T9H         1 TEMP              0 ****  ****    0 ROOT
