@<TRIPOS>MOLECULE
T9H
   73    78     1     0     0
SMALL
abcg2


@<TRIPOS>ATOM
      1 O4           4.3530    -2.5460    -1.0680 o          1 T9H      -0.561100
      2 C6           4.9400    -1.6350    -0.5240 c          1 T9H       0.602100
      3 N2           6.1300    -1.7580     0.1240 ns         1 T9H      -0.138000
      4 C5           6.9270    -2.8810     0.2840 ca         1 T9H       0.024000
      5 C4           8.1020    -2.7340     1.0250 ca         1 T9H      -0.208500
      6 C3           8.9250    -3.8280     1.2060 ca         1 T9H       0.356900
      7 N1           8.6720    -5.0360     0.7110 nb         1 T9H      -0.684000
      8 C2           7.5540    -5.1660     0.0090 ca         1 T9H       0.356900
      9 C1           6.6500    -4.1440    -0.2380 ca         1 T9H      -0.208500
     10 C7           4.4250    -0.1980    -0.5810 c3         1 T9H       0.043700
     11 C23          4.8180     0.4180    -1.9370 c3         1 T9H      -0.010200
     12 C24          4.3270     1.8180    -2.0820 cc         1 T9H      -0.153400
     13 C27          4.7950     2.9730    -1.3760 ca         1 T9H      -0.093800
     14 C28          5.8140     3.1920    -0.4410 ca         1 T9H      -0.064000
     15 C29          6.0070     4.4690     0.0500 ca         1 T9H      -0.134000
     16 C30          5.2010     5.5380    -0.3760 ca         1 T9H      -0.088000
     17 C31          4.1920     5.3530    -1.3020 ca         1 T9H      -0.126000
     18 C26          4.0010     4.0630    -1.7950 ca         1 T9H      -0.047200
     19 N6           3.1030     3.5870    -2.7050 na         1 T9H      -0.221700
     20 C25          3.2990     2.2470    -2.8750 cd         1 T9H      -0.159100
     21 N3           2.9990    -0.1690    -0.4320 ns         1 T9H      -0.489900
     22 C8           2.4080    -0.5940     0.7000 c          1 T9H       0.631700
     23 O3           3.0510    -1.0920     1.6120 o          1 T9H      -0.587100
     24 C9           0.9410    -0.3790     0.7600 ca         1 T9H      -0.238600
     25 C22          0.0840    -1.2880     1.3710 ca         1 T9H       0.270000
     26 F            0.5810    -2.4360     1.8460 f          1 T9H      -0.154000
     27 C21         -1.2720    -1.0970     1.4760 ca         1 T9H      -0.238000
     28 C12         -1.8660     0.0730     0.9720 ca         1 T9H       0.370000
     29 C11         -1.0140     1.0150     0.3690 ca         1 T9H      -0.215000
     30 C10          0.3420     0.7770     0.2610 ca         1 T9H      -0.024000
     31 N4          -3.2290     0.2570     1.0450 nh         1 T9H      -0.804400
     32 C20         -3.8260     1.4520     0.4830 c6         1 T9H       0.209800
     33 C19         -5.2860     1.2180     0.1420 c6         1 T9H       0.179300
     34 N5          -5.9980     0.7500     1.3290 n3         1 T9H      -0.712500
     35 C14         -5.4220    -0.4900     1.8430 c6         1 T9H       0.179300
     36 C13         -3.9670    -0.2490     2.1900 c6         1 T9H       0.209800
     37 S1          -7.6470     0.8500     1.3080 sy         1 T9H       1.195600
     38 O1          -8.1110     0.4290     2.6160 o          1 T9H      -0.531500
     39 O2          -7.9860     2.1620     0.7880 o          1 T9H      -0.531500
     40 C15         -8.2130    -0.3240     0.1440 cc         1 T9H      -0.486500
     41 S2          -8.3840     0.0970    -1.5120 ss         1 T9H       0.331000
     42 C18         -8.8300    -1.5030    -1.9030 cc         1 T9H      -0.214000
     43 C17         -8.8480    -2.3190    -0.8090 cd         1 T9H      -0.157000
     44 C16         -8.4890    -1.6400     0.3800 cd         1 T9H       0.009000
     45 H2           6.4770    -0.9250     0.5760 hn         1 T9H       0.155000
     46 H7           4.8850     0.3910     0.2210 h1         1 T9H       0.070700
     47 H4           8.3720    -1.7780     1.4560 ha         1 T9H       0.136000
     48 H1           5.7670    -4.3480    -0.8210 ha         1 T9H       0.136000
     49 H3           9.8380    -3.7170     1.7800 h4         1 T9H       0.017100
     50 HA           7.3480    -6.1510    -0.3950 h4         1 T9H       0.017100
     51 H231         5.9070     0.3770    -2.0250 hc         1 T9H       0.063700
     52 H232         4.4140    -0.2030    -2.7400 hc         1 T9H       0.063700
     53 HB           2.4390     0.1250    -1.2160 hn         1 T9H       0.328500
     54 H25          2.6880     1.6830    -3.5630 h4         1 T9H       0.213000
     55 H28          6.4480     2.3780    -0.1100 ha         1 T9H       0.109000
     56 H29          6.7920     4.6520     0.7730 ha         1 T9H       0.114000
     57 H30          5.3750     6.5270     0.0280 ha         1 T9H       0.113000
     58 H31          3.5750     6.1800    -1.6300 ha         1 T9H       0.115000
     59 H6           2.4100     4.1330    -3.1880 hn         1 T9H       0.352000
     60 H10          0.9560     1.5450    -0.1920 ha         1 T9H       0.117000
     61 H21         -1.8570    -1.8870     1.9270 ha         1 T9H       0.135000
     62 H11         -1.3890     1.9560    -0.0030 ha         1 T9H       0.118000
     63 H201        -3.7350     2.3060     1.1670 h1         1 T9H       0.056450
     64 H202        -3.3310     1.7140    -0.4490 h1         1 T9H       0.056450
     65 H131        -3.5570    -1.1950     2.5280 h1         1 T9H       0.056450
     66 H132        -3.9050     0.4570     3.0280 h1         1 T9H       0.056450
     67 H191        -5.7090     2.1590    -0.2020 h1         1 T9H       0.065950
     68 H192        -5.3560     0.4850    -0.6710 h1         1 T9H       0.065950
     69 H141        -5.9430    -0.7990     2.7460 h1         1 T9H       0.065950
     70 H142        -5.5000    -1.2950     1.1010 h1         1 T9H       0.065950
     71 H16         -8.4520    -2.1020     1.3560 ha         1 T9H       0.150000
     72 H18         -9.0680    -1.7600    -2.9240 h4         1 T9H       0.154000
     73 H17         -9.1160    -3.3650    -0.8490 ha         1 T9H       0.142000
@<TRIPOS>BOND
     1     1     2 2   
     2     2     3 1   
     3     2    10 1   
     4     3     4 1   
     5     3    45 1   
     6     4     5 ar  
     7     4     9 ar  
     8     5     6 ar  
     9     5    47 1   
    10     6     7 ar  
    11     6    49 1   
    12     7     8 ar  
    13     8     9 ar  
    14     8    50 1   
    15     9    48 1   
    16    10    11 1   
    17    10    21 1   
    18    10    46 1   
    19    11    12 1   
    20    11    51 1   
    21    11    52 1   
    22    12    13 1   
    23    12    20 2   
    24    13    14 ar  
    25    13    18 ar  
    26    14    15 ar  
    27    14    55 1   
    28    15    16 ar  
    29    15    56 1   
    30    16    17 ar  
    31    16    57 1   
    32    17    18 ar  
    33    17    58 1   
    34    18    19 1   
    35    19    20 1   
    36    19    59 1   
    37    20    54 1   
    38    21    22 1   
    39    21    53 1   
    40    22    23 2   
    41    22    24 1   
    42    24    25 ar  
    43    24    30 ar  
    44    25    26 1   
    45    25    27 ar  
    46    27    28 ar  
    47    27    61 1   
    48    28    29 ar  
    49    28    31 1   
    50    29    30 ar  
    51    29    62 1   
    52    30    60 1   
    53    31    32 1   
    54    31    36 1   
    55    32    33 1   
    56    32    63 1   
    57    32    64 1   
    58    33    34 1   
    59    33    67 1   
    60    33    68 1   
    61    34    35 1   
    62    34    37 1   
    63    35    36 1   
    64    35    69 1   
    65    35    70 1   
    66    36    65 1   
    67    36    66 1   
    68    37    38 2   
    69    37    39 2   
    70    37    40 1   
    71    40    41 1   
    72    40    44 2   
    73    41    42 1   
    74    42    43 2   
    75    42    72 1   
    76    43    44 1   
    77    43    73 1   
    78    44    71 1   
@<TRIPOS>SUBSTRUCTURE
     1 T9H         1 TEMP              0 ****  ****    0 ROOT
