@<TRIPOS>MOLECULE
T9I
   49    53     1     0     0
SMALL
No Charge or Current Charge


@<TRIPOS>ATOM
      1 C7         -31.7170     1.1470    14.0280 ca         1 T9I       0.144500
      2 C5         -31.8210    -0.8650    13.0780 cc         1 T9I       0.416700
      3 C4         -33.6660    -0.2920    14.7410 c5         1 T9I       0.319300
      4 C3         -33.8980    -2.6740    17.3560 c3         1 T9I       0.146600
      5 C2         -34.4330    -1.3740    16.6810 c5         1 T9I       0.133300
      6 C1         -34.5560    -1.4900    14.2770 c5         1 T9I       0.143300
      7 C6         -30.6840     0.9720    13.1380 ca         1 T9I      -0.092600
      8 C10        -29.0030     1.7480    10.7290 c5         1 T9I       0.277800
      9 C18        -28.8140     4.0870     7.8300 ca         1 T9I      -0.101000
     10 C11        -27.6180     1.3600    10.0710 c5         1 T9I      -0.085400
     11 C12        -27.7090     1.8550     8.5790 c5         1 T9I      -0.031100
     12 C13        -28.6320     3.0340     8.7400 ca         1 T9I      -0.086300
     13 C17        -29.7440     5.0990     8.1370 ca         1 T9I      -0.108000
     14 C14        -29.3450     2.9810     9.9240 ca         1 T9I      -0.114300
     15 C16        -30.4820     5.0420     9.3370 ca         1 T9I      -0.115000
     16 C15        -30.2890     3.9750    10.2370 ca         1 T9I      -0.075000
     17 N          -32.4420    -0.0090    13.9900 na         1 T9I      -0.297300
     18 C          -35.4790    -1.5940    15.5230 c5         1 T9I       0.112300
     19 O          -36.4880    -0.5630    15.4790 oh         1 T9I      -0.693000
     20 C8         -30.9310     3.2270    14.5510 ca         1 T9I       0.177900
     21 C9         -29.7550     2.0350    12.9770 ca         1 T9I       0.443900
     22 N1         -30.7290    -0.2940    12.5370 nd         1 T9I      -0.561100
     23 N2         -31.8700     2.2740    14.7480 nb         1 T9I      -0.215000
     24 N3         -29.8750     3.1590    13.7070 nb         1 T9I      -0.302000
     25 N4         -28.6380     2.0080    12.1450 nu         1 T9I      -0.905100
     26 O1         -35.3240    -1.2370    13.0920 oh         1 T9I      -0.680000
     27 O2         -33.4190    -3.6400    16.3990 oh         1 T9I      -0.741000
     28 O3         -33.3230    -0.6320    16.1000 os         1 T9I      -0.450000
     29 H1         -32.1930    -1.8580    12.8560 h5         1 T9I       0.077800
     30 H2         -34.2580     0.6330    14.7320 h2         1 T9I       0.126700
     31 H3         -34.7130    -3.1100    17.9510 h1         1 T9I       0.039700
     32 H4         -33.0980    -2.3980    18.0570 h1         1 T9I       0.039700
     33 H5         -34.8740    -0.7560    17.4750 h1         1 T9I       0.075700
     34 H6         -33.9540    -2.4010    14.1600 h1         1 T9I       0.065700
     35 H7         -29.7480     0.9550    10.5650 h1         1 T9I       0.107700
     36 H8         -28.2490     4.1190     6.9010 ha         1 T9I       0.113000
     37 H9         -27.4150     0.2860    10.1420 hc         1 T9I       0.053200
     38 H10        -26.7770     1.8700    10.5580 hc         1 T9I       0.053200
     39 H11        -28.1450     1.0920     7.9240 hc         1 T9I       0.055700
     40 H12        -26.7280     2.1270     8.1710 hc         1 T9I       0.055700
     41 H13        -29.8980     5.9230     7.4430 ha         1 T9I       0.111000
     42 H14        -31.2060     5.8210     9.5670 ha         1 T9I       0.113000
     43 H15        -30.8680     3.9250    11.1550 ha         1 T9I       0.123000
     44 H16        -35.9480    -2.5870    15.5880 h1         1 T9I       0.058700
     45 H17        -37.1010    -0.7130    16.2380 ho         1 T9I       0.501000
     46 H18        -31.0330     4.1410    15.1330 h5         1 T9I       0.047100
     47 H19        -28.0220     2.7980    12.3240 hn         1 T9I       0.499000
     48 H20        -36.1480    -0.8080    13.4350 ho         1 T9I       0.510000
     49 H21        -33.0310    -4.3890    16.9120 ho         1 T9I       0.513000
@<TRIPOS>BOND
     1     1     7 ar  
     2     1    17 1   
     3     1    23 ar  
     4     2    17 1   
     5     2    22 2   
     6     2    29 1   
     7     3     6 1   
     8     3    17 1   
     9     3    28 1   
    10     3    30 1   
    11     4     5 1   
    12     4    27 1   
    13     4    31 1   
    14     4    32 1   
    15     5    18 1   
    16     5    28 1   
    17     5    33 1   
    18     6    18 1   
    19     6    26 1   
    20     6    34 1   
    21     7    21 ar  
    22     7    22 1   
    23     8    10 1   
    24     8    14 1   
    25     8    25 1   
    26     8    35 1   
    27     9    12 ar  
    28     9    13 ar  
    29     9    36 1   
    30    10    11 1   
    31    10    37 1   
    32    10    38 1   
    33    11    12 1   
    34    11    39 1   
    35    11    40 1   
    36    12    14 ar  
    37    13    15 ar  
    38    13    41 1   
    39    14    16 ar  
    40    15    16 ar  
    41    15    42 1   
    42    16    43 1   
    43    18    19 1   
    44    18    44 1   
    45    19    45 1   
    46    20    23 ar  
    47    20    24 ar  
    48    20    46 1   
    49    21    24 ar  
    50    21    25 1   
    51    25    47 1   
    52    26    48 1   
    53    27    49 1   
@<TRIPOS>SUBSTRUCTURE
     1 T9I         1 TEMP              0 ****  ****    0 ROOT
