@<TRIPOS>MOLECULE
T9I
   49    53     1     0     0
SMALL
abcg2


@<TRIPOS>ATOM
      1 C7         -31.5860     1.7440    14.5430 ca         1 T9I       0.144500
      2 C5         -31.9760    -0.0910    13.3810 cc         1 T9I       0.416700
      3 C4         -33.3880     0.2340    15.4530 c5         1 T9I       0.319300
      4 C3         -33.7590    -3.1410    15.4070 c3         1 T9I       0.146600
      5 C2         -34.0550    -1.8960    16.2160 c5         1 T9I       0.133300
      6 C1         -34.7560    -0.0800    14.8420 c5         1 T9I       0.143300
      7 C6         -30.7240     1.6470    13.4450 ca         1 T9I      -0.092600
      8 C10        -28.7340     1.9150    11.1640 c5         1 T9I       0.277800
      9 C18        -29.2510     2.4240     7.5310 ca         1 T9I      -0.101000
     10 C11        -27.2810     1.8300    10.6560 c5         1 T9I      -0.085400
     11 C12        -27.4070     1.5090     9.1520 c5         1 T9I      -0.031100
     12 C13        -28.7400     2.1160     8.7850 ca         1 T9I      -0.086300
     13 C17        -30.5260     2.9840     7.4390 ca         1 T9I      -0.108000
     14 C14        -29.4970     2.3600     9.9310 ca         1 T9I      -0.114300
     15 C16        -31.2780     3.2280     8.5870 ca         1 T9I      -0.115000
     16 C15        -30.7660     2.9130     9.8450 ca         1 T9I      -0.075000
     17 N          -32.3880     0.6260    14.4840 na         1 T9I      -0.297300
     18 C          -35.3190    -1.1240    15.8140 c5         1 T9I       0.112300
     19 O          -35.8940    -0.4420    16.9230 oh         1 T9I      -0.693000
     20 C8         -30.6980     3.6590    15.1970 ca         1 T9I       0.177900
     21 C9         -29.7930     2.6970    13.2870 ca         1 T9I       0.443900
     22 N1         -30.9950     0.4830    12.7350 nd         1 T9I      -0.561100
     23 N2         -31.6150     2.7250    15.4500 nb         1 T9I      -0.215000
     24 N3         -29.8190     3.6990    14.1970 nb         1 T9I      -0.302000
     25 N4         -28.8640     2.7850    12.3180 nu         1 T9I      -0.905100
     26 O1         -35.4910     1.1150    14.6990 oh         1 T9I      -0.680000
     27 O2         -33.7680    -2.8350    14.0130 oh         1 T9I      -0.741000
     28 O3         -32.9670    -0.9460    16.1130 os         1 T9I      -0.450000
     29 H1         -32.4330    -1.0360    13.1320 h5         1 T9I       0.077800
     30 H2         -33.4710     1.0640    16.1570 h2         1 T9I       0.126700
     31 H3         -34.5200    -3.8930    15.6460 h1         1 T9I       0.039700
     32 H4         -32.7820    -3.5300    15.7110 h1         1 T9I       0.039700
     33 H5         -34.1290    -2.1980    17.2640 h1         1 T9I       0.075700
     34 H6         -34.6140    -0.5710    13.8790 h1         1 T9I       0.065700
     35 H7         -29.0860     0.9270    11.4610 h1         1 T9I       0.107700
     36 H8         -28.6680     2.2430     6.6360 ha         1 T9I       0.113000
     37 H9         -26.6920     1.0990    11.2080 hc         1 T9I       0.053200
     38 H10        -26.8110     2.8090    10.7790 hc         1 T9I       0.053200
     39 H11        -27.4290     0.4260     8.9900 hc         1 T9I       0.055700
     40 H12        -26.5800     1.9070     8.5630 hc         1 T9I       0.055700
     41 H13        -30.9320     3.2360     6.4670 ha         1 T9I       0.111000
     42 H14        -32.2630     3.6690     8.5000 ha         1 T9I       0.113000
     43 H15        -31.3500     3.1090    10.7370 ha         1 T9I       0.123000
     44 H16        -36.0550    -1.7720    15.3320 h1         1 T9I       0.058700
     45 H17        -36.2160    -1.1030    17.5470 ho         1 T9I       0.501000
     46 H18        -30.6610     4.4930    15.8900 h5         1 T9I       0.047100
     47 H19        -28.3470     3.6540    12.3000 hn         1 T9I       0.499000
     48 H20        -36.2230     0.9570    14.0900 ho         1 T9I       0.510000
     49 H21        -33.4960    -3.6210    13.5250 ho         1 T9I       0.513000
@<TRIPOS>BOND
     1     1     7 ar  
     2     1    17 1   
     3     1    23 ar  
     4     2    17 1   
     5     2    22 2   
     6     2    29 1   
     7     3     6 1   
     8     3    17 1   
     9     3    28 1   
    10     3    30 1   
    11     4     5 1   
    12     4    27 1   
    13     4    31 1   
    14     4    32 1   
    15     5    18 1   
    16     5    28 1   
    17     5    33 1   
    18     6    18 1   
    19     6    26 1   
    20     6    34 1   
    21     7    21 ar  
    22     7    22 1   
    23     8    10 1   
    24     8    14 1   
    25     8    25 1   
    26     8    35 1   
    27     9    12 ar  
    28     9    13 ar  
    29     9    36 1   
    30    10    11 1   
    31    10    37 1   
    32    10    38 1   
    33    11    12 1   
    34    11    39 1   
    35    11    40 1   
    36    12    14 ar  
    37    13    15 ar  
    38    13    41 1   
    39    14    16 ar  
    40    15    16 ar  
    41    15    42 1   
    42    16    43 1   
    43    18    19 1   
    44    18    44 1   
    45    19    45 1   
    46    20    23 ar  
    47    20    24 ar  
    48    20    46 1   
    49    21    24 ar  
    50    21    25 1   
    51    25    47 1   
    52    26    48 1   
    53    27    49 1   
@<TRIPOS>SUBSTRUCTURE
     1 T9I         1 TEMP              0 ****  ****    0 ROOT
