@<TRIPOS>MOLECULE
T9J
   35    35     1     0     0
SMALL
No Charge or Current Charge


@<TRIPOS>ATOM
      1 N1           8.1050     2.5510    22.3780 ns         1 T9J      -0.497900
      2 C4           6.6680     0.4900    22.4240 c3         1 T9J      -0.039100
      3 C5           6.2490     0.6550    20.9650 ca         1 T9J      -0.123300
      4 C6           5.4720     1.7610    20.5690 ca         1 T9J      -0.062500
      5 C7           5.0920     1.9130    19.2240 ca         1 T9J      -0.173500
      6 C8           5.4830     0.9620    18.2700 ca         1 T9J       0.143100
      7 C10          6.6350    -0.3000    20.0030 ca         1 T9J      -0.062500
      8 C13         11.6020    -1.8160    22.8340 c1         1 T9J      -0.103100
      9 C1           7.6480     4.9480    22.4450 c3         1 T9J      -0.177100
     10 C11          9.2200     0.3420    22.0560 c          1 T9J       0.595100
     11 C12         10.4220    -1.8680    21.9650 c3         1 T9J       0.190100
     12 C14         12.5700    -1.7420    23.5550 c1         1 T9J      -0.036200
     13 C2           7.4820     3.5670    23.0630 c          1 T9J       0.603100
     14 C3           8.0560     1.1150    22.7420 c3         1 T9J       0.038700
     15 C9           6.2530    -0.1460    18.6590 ca         1 T9J      -0.173500
     16 N2           9.3870    -0.9640    22.4680 ns         1 T9J      -0.506900
     17 O1           6.8470     3.3760    24.0890 o          1 T9J      -0.617100
     18 O2           5.1090     1.1180    16.9700 oh         1 T9J      -0.533100
     19 O3           9.9520     0.8480    21.2130 o          1 T9J      -0.585100
     20 Br1         14.0020    -1.6220    24.6270 br         1 T9J      -0.013800
     21 H4           8.6210     2.8120    21.5440 hn         1 T9J       0.342500
     22 H7           6.6690    -0.5710    22.7000 hc         1 T9J       0.061200
     23 H6           5.9180     0.9540    23.0760 hc         1 T9J       0.061200
     24 H8           5.1630     2.5040    21.3010 ha         1 T9J       0.111000
     25 H9           4.4940     2.7690    18.9230 ha         1 T9J       0.121000
     26 H11          7.2310    -1.1620    20.2950 ha         1 T9J       0.111000
     27 H2           7.2980     4.9180    21.4070 hc         1 T9J       0.062367
     28 H1           7.1420     5.7310    23.0210 hc         1 T9J       0.062367
     29 H3           8.7170     5.1600    22.3250 hc         1 T9J       0.062367
     30 H14         10.0280    -2.8930    21.9490 h1         1 T9J       0.074700
     31 H15         10.7040    -1.5930    20.9400 h1         1 T9J       0.074700
     32 H5           8.2300     1.0300    23.8220 h1         1 T9J       0.083700
     33 H10          6.5600    -0.8890    17.9270 ha         1 T9J       0.121000
     34 H13          8.7570    -1.3080    23.1830 hn         1 T9J       0.322500
     35 H12          5.4670     0.3650    16.4520 ho         1 T9J       0.465000
@<TRIPOS>BOND
     1     1    13 1   
     2     1    14 1   
     3     1    21 1   
     4     2     3 1   
     5     2    14 1   
     6     2    22 1   
     7     2    23 1   
     8     3     4 ar  
     9     3     7 ar  
    10     4     5 ar  
    11     4    24 1   
    12     5     6 ar  
    13     5    25 1   
    14     6    15 ar  
    15     6    18 1   
    16     7    15 ar  
    17     7    26 1   
    18     8    11 1   
    19     8    12 3   
    20     9    13 1   
    21     9    27 1   
    22     9    28 1   
    23     9    29 1   
    24    10    14 1   
    25    10    16 1   
    26    10    19 2   
    27    11    16 1   
    28    11    30 1   
    29    11    31 1   
    30    12    20 1   
    31    13    17 2   
    32    14    32 1   
    33    15    33 1   
    34    16    34 1   
    35    18    35 1   
@<TRIPOS>SUBSTRUCTURE
     1 T9J         1 TEMP              0 ****  ****    0 ROOT
