@<TRIPOS>MOLECULE
T9J
   35    35     1     0     0
SMALL
bcc


@<TRIPOS>ATOM
      1 N1           8.0200     2.5000    22.5010 ns         1 T9J      -0.564900
      2 C4           6.4940     0.5490    22.4240 c3         1 T9J      -0.039100
      3 C5           6.2490     0.6320    20.9460 ca         1 T9J      -0.123300
      4 C6           5.6940     1.7730    20.3700 ca         1 T9J      -0.080500
      5 C7           5.5010     1.8770    19.0020 ca         1 T9J      -0.191500
      6 C8           5.8650     0.8230    18.1670 ca         1 T9J       0.143100
      7 C10          6.5980    -0.4140    20.0960 ca         1 T9J      -0.080500
      8 C13         11.4800    -1.5390    22.5350 c1         1 T9J      -0.103100
      9 C1           7.7070     4.8830    22.6800 c3         1 T9J      -0.177100
     10 C11          8.9960     0.3330    22.1660 c          1 T9J       0.662100
     11 C12         10.1310    -1.8180    22.0410 c3         1 T9J       0.190100
     12 C14         12.5880    -1.3200    22.9460 c1         1 T9J      -0.036200
     13 C2           7.4970     3.4970    23.2350 c          1 T9J       0.670100
     14 C3           7.8720     1.1120    22.8400 c3         1 T9J       0.038700
     15 C9           6.4130    -0.3290    18.7240 ca         1 T9J      -0.191500
     16 N2           9.1320    -0.9340    22.5920 ns         1 T9J      -0.573900
     17 O1           6.8820     3.3010    24.2750 o          1 T9J      -0.617100
     18 O2           5.6570     0.9660    16.8410 oh         1 T9J      -0.494100
     19 O3           9.6860     0.8120    21.2840 o          1 T9J      -0.585100
     20 BR1         14.2250    -0.9850    23.5580 br         1 T9J      -0.013800
     21 H4           8.5090     2.7140    21.6450 hn         1 T9J       0.342500
     22 H7           6.4140    -0.4840    22.7690 hc         1 T9J       0.061200
     23 H6           5.7350     1.1110    22.9710 hc         1 T9J       0.061200
     24 H8           5.3890     2.6000    21.0010 ha         1 T9J       0.129000
     25 H9           5.0640     2.7730    18.5790 ha         1 T9J       0.139000
     26 H11          7.0190    -1.3240    20.5070 ha         1 T9J       0.129000
     27 H2           6.7460     5.2940    22.3700 hc         1 T9J       0.062367
     28 H1           8.1010     5.5330    23.4600 hc         1 T9J       0.062367
     29 H3           8.3820     4.9120    21.8260 hc         1 T9J       0.062367
     30 H14          9.8550    -2.8400    22.2990 h1         1 T9J       0.074700
     31 H15         10.1230    -1.7550    20.9520 h1         1 T9J       0.074700
     32 H5           7.9680     0.9970    23.9240 h1         1 T9J       0.083700
     33 H10          6.6910    -1.1640    18.0910 ha         1 T9J       0.139000
     34 H13          8.6180    -1.2520    23.3980 hn         1 T9J       0.322500
     35 H12          5.9520     0.1790    16.3700 ho         1 T9J       0.426000
@<TRIPOS>BOND
     1     1    13 1   
     2     1    14 1   
     3     1    21 1   
     4     2     3 1   
     5     2    14 1   
     6     2    22 1   
     7     2    23 1   
     8     3     4 ar  
     9     3     7 ar  
    10     4     5 ar  
    11     4    24 1   
    12     5     6 ar  
    13     5    25 1   
    14     6    15 ar  
    15     6    18 1   
    16     7    15 ar  
    17     7    26 1   
    18     8    11 1   
    19     8    12 3   
    20     9    13 1   
    21     9    27 1   
    22     9    28 1   
    23     9    29 1   
    24    10    14 1   
    25    10    16 1   
    26    10    19 2   
    27    11    16 1   
    28    11    30 1   
    29    11    31 1   
    30    12    20 1   
    31    13    17 2   
    32    14    32 1   
    33    15    33 1   
    34    16    34 1   
    35    18    35 1   
@<TRIPOS>SUBSTRUCTURE
     1 T9J         1 TEMP              0 ****  ****    0 ROOT
