@<TRIPOS>MOLECULE
T9K
   23    23     1     0     0
SMALL
No Charge or Current Charge


@<TRIPOS>ATOM
      1 C10          1.8170    -4.5780     5.4630 ca         1 T9K      -0.054000
      2 C13          0.4000    -4.7410     5.6310 cg         1 T9K       0.326000
      3 C01          7.7340    -1.5960     5.1320 c3         1 T9K       0.172900
      4 C03          8.3740    -3.9570     5.4550 c          1 T9K       0.617100
      5 C05          6.9300    -4.2000     5.9710 c3         1 T9K       0.043600
      6 C07          4.6010    -4.2570     5.1300 ca         1 T9K       0.159100
      7 C08          3.7360    -4.1090     4.0350 ca         1 T9K      -0.176000
      8 C09          2.3480    -4.2680     4.1960 ca         1 T9K      -0.032000
      9 C11          2.6820    -4.7270     6.5640 ca         1 T9K      -0.032000
     10 C12          4.0700    -4.5670     6.4010 ca         1 T9K      -0.176000
     11 N14         -0.7530    -4.8650     5.7740 n1         1 T9K      -0.451000
     12 O02          8.6980    -2.6690     5.0700 os         1 T9K      -0.439100
     13 O04          9.2030    -4.8550     5.4110 o          1 T9K      -0.420000
     14 O06          5.9520    -4.0870     4.9090 os         1 T9K      -0.338100
     15 H1           8.1990    -0.6560     4.8090 h1         1 T9K       0.048033
     16 H2           6.8820    -1.7840     4.4670 h1         1 T9K       0.048033
     17 H3           7.3660    -1.4470     6.1550 h1         1 T9K       0.048033
     18 H4           6.7250    -3.4850     6.7760 h1         1 T9K       0.067700
     19 H5           6.9070    -5.2080     6.4040 h1         1 T9K       0.067700
     20 H6           4.1430    -3.8700     3.0560 ha         1 T9K       0.130500
     21 H7           1.6880    -4.1500     3.3370 ha         1 T9K       0.129500
     22 H8           2.2800    -4.9670     7.5470 ha         1 T9K       0.129500
     23 H9           4.7130    -4.6890     7.2670 ha         1 T9K       0.130500
@<TRIPOS>BOND
     1     1     2 1   
     2     1     8 ar  
     3     1     9 ar  
     4     2    11 3   
     5     3    12 1   
     6     3    15 1   
     7     3    16 1   
     8     3    17 1   
     9     4     5 1   
    10     4    12 1   
    11     4    13 2   
    12     5    14 1   
    13     5    18 1   
    14     5    19 1   
    15     6     7 ar  
    16     6    10 ar  
    17     6    14 1   
    18     7     8 ar  
    19     7    20 1   
    20     8    21 1   
    21     9    10 ar  
    22     9    22 1   
    23    10    23 1   
@<TRIPOS>SUBSTRUCTURE
     1 T9K         1 TEMP              0 ****  ****    0 ROOT
