@<TRIPOS>MOLECULE
T9K
   23    23     1     0     0
SMALL
bcc


@<TRIPOS>ATOM
      1 C10          1.9350    -4.4970     5.4750 ca         1 T9K      -0.054000
      2 C13          0.5220    -4.6060     5.6190 cg         1 T9K       0.236800
      3 C01          7.4730    -1.6920     4.9360 c3         1 T9K       0.149700
      4 C03          8.2900    -3.8970     5.5480 c          1 T9K       0.666100
      5 C05          6.9080    -4.2780     6.0510 c3         1 T9K       0.020400
      6 C07          4.6900    -4.2780     5.2020 ca         1 T9K       0.159100
      7 C08          3.8540    -4.0000     4.1160 ca         1 T9K      -0.194000
      8 C09          2.4880    -4.1080     4.2510 ca         1 T9K      -0.050000
      9 C11          2.7700    -4.7770     6.5530 ca         1 T9K      -0.050000
     10 C12          4.1440    -4.6710     6.4230 ca         1 T9K      -0.194000
     11 N14         -0.6210    -4.6960     5.7350 n1         1 T9K      -0.361800
     12 O02          8.4720    -2.7130     4.9860 os         1 T9K      -0.415900
     13 O04          9.2290    -4.6380     5.6650 o          1 T9K      -0.469000
     14 O06          6.0060    -4.1460     4.9740 os         1 T9K      -0.314900
     15 H1           8.0120    -0.7560     4.8180 h1         1 T9K       0.048033
     16 H2           6.8100    -1.8330     4.0860 h1         1 T9K       0.048033
     17 H3           6.8870    -1.6370     5.8540 h1         1 T9K       0.048033
     18 H4           6.6290    -3.6330     6.8940 h1         1 T9K       0.067700
     19 H5           6.9500    -5.3070     6.4130 h1         1 T9K       0.067700
     20 H6           4.2870    -3.6960     3.1720 ha         1 T9K       0.148500
     21 H7           1.8460    -3.8880     3.4090 ha         1 T9K       0.147500
     22 H8           2.3490    -5.0820     7.5020 ha         1 T9K       0.147500
     23 H9           4.7650    -4.9030     7.2770 ha         1 T9K       0.148500
@<TRIPOS>BOND
     1     1     2 1   
     2     1     8 ar  
     3     1     9 ar  
     4     2    11 3   
     5     3    12 1   
     6     3    15 1   
     7     3    16 1   
     8     3    17 1   
     9     4     5 1   
    10     4    12 1   
    11     4    13 2   
    12     5    14 1   
    13     5    18 1   
    14     5    19 1   
    15     6     7 ar  
    16     6    10 ar  
    17     6    14 1   
    18     7     8 ar  
    19     7    20 1   
    20     8    21 1   
    21     9    10 ar  
    22     9    22 1   
    23    10    23 1   
@<TRIPOS>SUBSTRUCTURE
     1 T9K         1 TEMP              0 ****  ****    0 ROOT
