@<TRIPOS>MOLECULE
T9M
   30    29     1     0     0
SMALL
bcc


@<TRIPOS>ATOM
      1 N1           2.0550    -5.8260    23.1350 ns         1 T9M      -0.559900
      2 C4           1.5180    -5.6050    21.9210 c          1 T9M       0.672100
      3 C5           0.2860    -4.7380    21.9020 c3         1 T9M      -0.177100
      4 C6           4.4810    -5.7220    22.9600 c          1 T9M       0.646100
      5 C7           6.5960    -5.6710    21.7240 c3         1 T9M       0.135200
      6 C8           6.4490    -4.9120    20.4390 c2         1 T9M      -0.208200
      7 C1           2.2870    -8.0430    25.1280 c3         1 T9M      -0.093100
      8 C2           3.3720    -7.0390    24.7870 c3         1 T9M       0.151100
      9 C3           3.2670    -6.5800    23.3190 c3         1 T9M      -0.000300
     10 C9           5.3380    -4.7970    19.7240 c2         1 T9M      -0.197000
     11 N2           5.3920    -6.3180    22.1790 ns         1 T9M      -0.554900
     12 O1           4.6210    -7.6510    25.0120 oh         1 T9M      -0.595800
     13 O2           1.9980    -6.0750    20.8990 o          1 T9M      -0.612100
     14 O3           4.5990    -4.5910    23.4040 o          1 T9M      -0.610100
     15 H7           1.6790    -5.3300    23.9280 hn         1 T9M       0.321500
     16 H9          -0.4970    -5.2300    21.3280 hc         1 T9M       0.062033
     17 H10         -0.1020    -4.5100    22.8930 hc         1 T9M       0.062033
     18 H8           0.5170    -3.7990    21.3990 hc         1 T9M       0.062033
     19 H13          6.9600    -5.0000    22.5040 h1         1 T9M       0.058200
     20 H12          7.3670    -6.4350    21.6050 h1         1 T9M       0.058200
     21 H14          7.3620    -4.4340    20.0960 ha         1 T9M       0.120000
     22 H3           1.2940    -7.6300    24.9570 hc         1 T9M       0.047700
     23 H1           2.3850    -8.9440    24.5190 hc         1 T9M       0.047700
     24 H2           2.3510    -8.3300    26.1770 hc         1 T9M       0.047700
     25 H4           3.2550    -6.1530    25.4260 h1         1 T9M       0.042700
     26 H6           3.2300    -7.4670    22.6810 h1         1 T9M       0.087700
     27 H16          5.3270    -4.2280    18.8030 ha         1 T9M       0.121500
     28 H15          4.4040    -5.2550    20.0260 ha         1 T9M       0.121500
     29 H11          5.1850    -7.2320    21.8110 hn         1 T9M       0.323500
     30 H5           5.2760    -6.9760    25.2110 ho         1 T9M       0.415000
@<TRIPOS>BOND
     1     1     2 1   
     2     1     9 1   
     3     1    15 1   
     4     2     3 1   
     5     2    13 2   
     6     3    16 1   
     7     3    17 1   
     8     3    18 1   
     9     4     9 1   
    10     4    11 1   
    11     4    14 2   
    12     5     6 1   
    13     5    11 1   
    14     5    19 1   
    15     5    20 1   
    16     6    10 2   
    17     6    21 1   
    18     7     8 1   
    19     7    22 1   
    20     7    23 1   
    21     7    24 1   
    22     8     9 1   
    23     8    12 1   
    24     8    25 1   
    25     9    26 1   
    26    10    27 1   
    27    10    28 1   
    28    11    29 1   
    29    12    30 1   
@<TRIPOS>SUBSTRUCTURE
     1 T9M         1 TEMP              0 ****  ****    0 ROOT
