@<TRIPOS>MOLECULE
T9M
   30    29     1     0     0
SMALL
No Charge or Current Charge


@<TRIPOS>ATOM
      1 N1           1.8460    -5.3690    23.1260 ns         1 T9M      -0.492900
      2 C4           0.5930    -5.7430    22.6960 c          1 T9M       0.605100
      3 C5          -0.5180    -4.7600    23.0400 c3         1 T9M      -0.177100
      4 C6           4.2630    -5.1610    22.5720 c          1 T9M       0.579100
      5 C7           6.6850    -5.0490    21.8800 c3         1 T9M       0.135200
      6 C8           6.8310    -5.0610    20.3760 c2         1 T9M      -0.258200
      7 C1           2.2640    -7.9040    24.6470 c3         1 T9M      -0.093100
      8 C2           3.4550    -7.0870    24.0990 c3         1 T9M       0.174300
      9 C3           3.0990    -6.1420    22.9070 c3         1 T9M      -0.000300
     10 C9           7.2300    -6.1120    19.6400 c2         1 T9M      -0.297000
     11 N2           5.4650    -5.7540    22.2580 ns         1 T9M      -0.487900
     12 O1           4.4730    -8.0140    23.6970 oh         1 T9M      -0.658000
     13 O2           0.3860    -6.7800    22.0840 o          1 T9M      -0.612100
     14 O3           4.1300    -3.9420    22.5780 o          1 T9M      -0.610100
     15 H7           1.9160    -4.4660    23.5850 hn         1 T9M       0.321500
     16 H9          -1.5000    -5.0890    22.6810 hc         1 T9M       0.062033
     17 H10         -0.5200    -4.5890    24.1230 hc         1 T9M       0.062033
     18 H8          -0.2540    -3.7710    22.6480 hc         1 T9M       0.062033
     19 H13          6.6570    -4.0170    22.2550 h1         1 T9M       0.058200
     20 H12          7.5420    -5.5540    22.3460 h1         1 T9M       0.058200
     21 H14          6.5770    -4.1130    19.8970 ha         1 T9M       0.170000
     22 H3           1.4900    -7.2450    25.0560 hc         1 T9M       0.047700
     23 H1           1.8150    -8.5190    23.8570 hc         1 T9M       0.047700
     24 H2           2.5890    -8.5690    25.4560 hc         1 T9M       0.047700
     25 H4           3.8280    -6.4620    24.9220 h1         1 T9M       0.042700
     26 H6           2.9640    -6.7660    22.0150 h1         1 T9M       0.087700
     27 H16          7.3130    -6.0520    18.5530 ha         1 T9M       0.171500
     28 H15          7.4880    -7.0700    20.0960 ha         1 T9M       0.171500
     29 H11          5.4900    -6.7660    22.3390 hn         1 T9M       0.323500
     30 H5           4.6560    -8.5960    24.4690 ho         1 T9M       0.454000
@<TRIPOS>BOND
     1     1     2 1   
     2     1     9 1   
     3     1    15 1   
     4     2     3 1   
     5     2    13 2   
     6     3    16 1   
     7     3    17 1   
     8     3    18 1   
     9     4     9 1   
    10     4    11 1   
    11     4    14 2   
    12     5     6 1   
    13     5    11 1   
    14     5    19 1   
    15     5    20 1   
    16     6    10 2   
    17     6    21 1   
    18     7     8 1   
    19     7    22 1   
    20     7    23 1   
    21     7    24 1   
    22     8     9 1   
    23     8    12 1   
    24     8    25 1   
    25     9    26 1   
    26    10    27 1   
    27    10    28 1   
    28    11    29 1   
    29    12    30 1   
@<TRIPOS>SUBSTRUCTURE
     1 T9M         1 TEMP              0 ****  ****    0 ROOT
