@<TRIPOS>MOLECULE
T9O
   44    44     1     0     0
SMALL
abcg2


@<TRIPOS>ATOM
      1 C10          1.5290    -1.8570    86.7320 c3         1 T9O      -0.059400
      2 C15         -2.7100     0.1310    84.5190 c3         1 T9O      -0.087100
      3 C17          4.8510    -6.6520    83.2500 c3         1 T9O      -0.067400
      4 C1           4.1980    -3.6560    83.7460 ce         1 T9O      -0.391800
      5 C2           2.8720    -3.5160    83.4820 c2         1 T9O       0.163900
      6 C3           1.8660    -3.0110    84.4650 c6         1 T9O      -0.092200
      7 C4           2.4930    -2.1900    85.5900 c6         1 T9O      -0.042700
      8 C5           3.7020    -2.9480    86.1390 c6         1 T9O      -0.181400
      9 C6           4.7030    -3.3340    85.0750 c          1 T9O       0.593300
     10 C11          0.3460    -0.9210    86.4380 c3         1 T9O       0.105300
     11 C12          0.7470     0.3450    85.6900 c3         1 T9O      -0.091100
     12 C18          5.8300    -5.4910    83.0200 c3         1 T9O      -0.122700
     13 C19          4.0520    -7.0300    82.0050 c3         1 T9O      -0.092100
     14 N16          5.4090    -3.5690    81.6280 n2         1 T9O      -0.742100
     15 O7           5.9030    -3.3920    85.3420 o          1 T9O      -0.534100
     16 O8           2.4040    -3.8780    82.2780 oh         1 T9O      -0.519100
     17 S13         -1.0200    -1.8510    85.6140 ss         1 T9O      -0.503000
     18 H1           1.1540    -2.7880    87.1680 hc         1 T9O       0.056200
     19 H2           2.1170    -1.3650    87.5120 hc         1 T9O       0.056200
     20 H3          -3.5760     0.7780    84.6830 hc         1 T9O       0.042367
     21 H4          -1.8620     0.7580    84.2450 hc         1 T9O       0.042367
     22 H5          -2.9330    -0.5240    83.6750 hc         1 T9O       0.042367
     23 H6           4.1700    -6.3940    84.0660 hc         1 T9O       0.035200
     24 H7           5.4280    -7.5160    83.5920 hc         1 T9O       0.035200
     25 H10          1.1180    -2.4260    83.9250 hc         1 T9O       0.075200
     26 H11          1.3390    -3.8800    84.8790 hc         1 T9O       0.075200
     27 H12          2.8600    -1.2560    85.1540 hc         1 T9O       0.060700
     28 H13          3.3620    -3.8780    86.6130 hc         1 T9O       0.072200
     29 H14          4.2230    -2.3660    86.8990 hc         1 T9O       0.072200
     30 H15         -0.0710    -0.6360    87.4060 h1         1 T9O       0.062700
     31 H16          1.5810     0.8300    86.2050 hc         1 T9O       0.044033
     32 H17          1.0550     0.1270    84.6660 hc         1 T9O       0.044033
     33 H18         -0.0790     1.0550    85.6510 hc         1 T9O       0.044033
     34 H19         -2.2130    -0.0410    86.6300 h1         1 T9O       0.065200
     35 H20         -3.2860    -1.2960    86.0320 h1         1 T9O       0.065200
     36 H21          6.5040    -5.7230    82.1940 hc         1 T9O       0.067700
     37 H22          6.4320    -5.3530    83.9200 hc         1 T9O       0.067700
     38 H23          3.3950    -7.8790    82.2050 hc         1 T9O       0.034033
     39 H24          3.4320    -6.2000    81.6650 hc         1 T9O       0.034033
     40 H25          4.7200    -7.3080    81.1850 hc         1 T9O       0.034033
     41 H26          4.8850    -2.6940    81.5760 hn         1 T9O       0.372400
     42 H27          1.4520    -3.7110    82.2180 ho         1 T9O       0.474000
     43 C9           5.1550    -4.1770    82.7200 ce         1 T9O       0.507600
     44 C14         -2.4220    -0.6840    85.7730 c3         1 T9O       0.083600
@<TRIPOS>BOND
     1     1     7 1   
     2     1    10 1   
     3     1    18 1   
     4     1    19 1   
     5     2    20 1   
     6     2    21 1   
     7     2    22 1   
     8     2    44 1   
     9     3    12 1   
    10     3    13 1   
    11     3    23 1   
    12     3    24 1   
    13     4     5 2   
    14     4     9 1   
    15     4    43 1   
    16     5     6 1   
    17     5    16 1   
    18     6     7 1   
    19     6    25 1   
    20     6    26 1   
    21     7     8 1   
    22     7    27 1   
    23     8     9 1   
    24     8    28 1   
    25     8    29 1   
    26     9    15 2   
    27    10    11 1   
    28    10    17 1   
    29    10    30 1   
    30    11    31 1   
    31    11    32 1   
    32    11    33 1   
    33    12    36 1   
    34    12    37 1   
    35    12    43 1   
    36    13    38 1   
    37    13    39 1   
    38    13    40 1   
    39    14    41 1   
    40    14    43 2   
    41    16    42 1   
    42    17    44 1   
    43    34    44 1   
    44    35    44 1   
@<TRIPOS>SUBSTRUCTURE
     1 T9O         1 TEMP              0 ****  ****    0 ROOT
