@<TRIPOS>MOLECULE
T9O
   44    44     1     0     0
SMALL
No Charge or Current Charge


@<TRIPOS>ATOM
      1 C10          1.4520    -2.0480    86.6700 c3         1 T9O      -0.059400
      2 C15         -2.7660     0.2870    84.5650 c3         1 T9O      -0.087100
      3 C17          5.1600    -6.5730    83.4870 c3         1 T9O      -0.067400
      4 C1           4.2130    -3.6450    83.5450 ce         1 T9O      -0.391800
      5 C2           2.9260    -3.3670    83.2240 c2         1 T9O       0.163900
      6 C3           1.8850    -2.8530    84.2160 c6         1 T9O      -0.092200
      7 C4           2.4970    -2.2900    85.5260 c6         1 T9O      -0.042700
      8 C5           3.6200    -3.2380    86.0050 c6         1 T9O      -0.181400
      9 C6           4.6960    -3.4040    84.9310 c          1 T9O       0.593300
     10 C11          0.3010    -1.0280    86.4290 c3         1 T9O       0.105300
     11 C12          0.7730     0.3310    85.8680 c3         1 T9O      -0.091100
     12 C18          5.9850    -5.4110    82.8780 c3         1 T9O      -0.122700
     13 C19          4.0400    -7.0930    82.5630 c3         1 T9O      -0.092100
     14 N16          5.2660    -3.5380    81.4460 n2         1 T9O      -0.742100
     15 O7           5.8830    -3.3490    85.2180 o          1 T9O      -0.534100
     16 O8           2.4230    -3.5470    81.9930 oh         1 T9O      -0.519100
     17 S13         -1.0430    -1.7550    85.3740 ss         1 T9O      -0.503000
     18 H1           1.0020    -3.0040    86.9650 hc         1 T9O       0.056200
     19 H2           1.9960    -1.7010    87.5570 hc         1 T9O       0.056200
     20 H3          -3.6060     0.9520    84.7970 hc         1 T9O       0.042367
     21 H4          -1.8980     0.9050    84.3100 hc         1 T9O       0.042367
     22 H5          -3.0340    -0.3120    83.6860 hc         1 T9O       0.042367
     23 H6           4.7240    -6.2610    84.4440 hc         1 T9O       0.035200
     24 H7           5.8390    -7.4040    83.7130 hc         1 T9O       0.035200
     25 H10          1.2820    -2.0700    83.7380 hc         1 T9O       0.075200
     26 H11          1.1980    -3.6760    84.4580 hc         1 T9O       0.075200
     27 H12          2.9610    -1.3170    85.3050 hc         1 T9O       0.060700
     28 H13          3.1590    -4.2260    86.1400 hc         1 T9O       0.072200
     29 H14          4.0780    -2.9280    86.9540 hc         1 T9O       0.072200
     30 H15         -0.1480    -0.8370    87.4140 h1         1 T9O       0.062700
     31 H16          1.6010     0.7270    86.4680 hc         1 T9O       0.044033
     32 H17          1.1130     0.2340    84.8310 hc         1 T9O       0.044033
     33 H18         -0.0390     1.0650    85.8950 hc         1 T9O       0.044033
     34 H19         -2.2230    -0.0160    86.6490 h1         1 T9O       0.065200
     35 H20         -3.3450    -1.2310    85.9960 h1         1 T9O       0.065200
     36 H21          6.4460    -5.7780    81.9530 hc         1 T9O       0.067700
     37 H22          6.8230    -5.1790    83.5450 hc         1 T9O       0.067700
     38 H23          3.5220    -7.9380    83.0310 hc         1 T9O       0.034033
     39 H24          3.3000    -6.3100    82.3630 hc         1 T9O       0.034033
     40 H25          4.4530    -7.4320    81.6050 hc         1 T9O       0.034033
     41 H26          4.3910    -3.0040    81.3430 hn         1 T9O       0.372400
     42 H27          1.4650    -3.3370    82.0250 ho         1 T9O       0.474000
     43 C9           5.2010    -4.1400    82.5820 ce         1 T9O       0.507600
     44 C14         -2.4590    -0.6250    85.7660 c3         1 T9O       0.083600
@<TRIPOS>BOND
     1     1     7 1   
     2     1    10 1   
     3     1    18 1   
     4     1    19 1   
     5     2    20 1   
     6     2    21 1   
     7     2    22 1   
     8     2    44 1   
     9     3    12 1   
    10     3    13 1   
    11     3    23 1   
    12     3    24 1   
    13     4     5 2   
    14     4     9 1   
    15     4    43 1   
    16     5     6 1   
    17     5    16 1   
    18     6     7 1   
    19     6    25 1   
    20     6    26 1   
    21     7     8 1   
    22     7    27 1   
    23     8     9 1   
    24     8    28 1   
    25     8    29 1   
    26     9    15 2   
    27    10    11 1   
    28    10    17 1   
    29    10    30 1   
    30    11    31 1   
    31    11    32 1   
    32    11    33 1   
    33    12    36 1   
    34    12    37 1   
    35    12    43 1   
    36    13    38 1   
    37    13    39 1   
    38    13    40 1   
    39    14    41 1   
    40    14    43 2   
    41    16    42 1   
    42    17    44 1   
    43    34    44 1   
    44    35    44 1   
@<TRIPOS>SUBSTRUCTURE
     1 T9O         1 TEMP              0 ****  ****    0 ROOT
