@<TRIPOS>MOLECULE
T9P
   30    29     1     0     0
SMALL
bcc


@<TRIPOS>ATOM
      1 N1           2.6310    -7.6140    22.2940 ns         1 T9P      -0.585900
      2 N3           5.1190    -6.5800    21.8740 ns         1 T9P      -0.556900
      3 C4           2.5110    -6.4390    24.4650 c3         1 T9P      -0.172400
      4 C5           3.2740    -7.4470    25.2970 c          1 T9P       0.682100
      5 C6           4.4660    -6.0820    22.9310 c          1 T9P       0.670100
      6 C7           6.4950    -6.2690    21.5860 c3         1 T9P       0.135200
      7 C8           6.7010    -5.0200    20.7810 c2         1 T9P      -0.195200
      8 C1           1.3600    -9.0730    20.8710 c3         1 T9P      -0.181100
      9 C2           1.6510    -7.6770    21.3620 c          1 T9P       0.665100
     10 C3           2.9760    -6.4140    23.0140 c3         1 T9P       0.038700
     11 C9           5.7490    -4.2270    20.3090 c2         1 T9P      -0.204000
     12 N2           3.1110    -7.3300    26.6200 nt         1 T9P      -0.667000
     13 O1           1.0580    -6.6920    20.9540 o          1 T9P      -0.598100
     14 O2           3.9720    -8.3140    24.7840 o          1 T9P      -0.630100
     15 O3           4.9850    -5.3610    23.7700 o          1 T9P      -0.608100
     16 H4           3.0090    -8.4770    22.6540 hn         1 T9P       0.335500
     17 H10          4.6120    -7.1540    21.2200 hn         1 T9P       0.323500
     18 H6           2.5960    -5.4440    24.9030 hc         1 T9P       0.077200
     19 H7           1.4480    -6.6940    24.4930 hc         1 T9P       0.077200
     20 H12          7.0530    -6.1930    22.5210 h1         1 T9P       0.061200
     21 H11          6.9300    -7.1160    21.0500 h1         1 T9P       0.061200
     22 H13          7.7420    -4.7820    20.5850 ha         1 T9P       0.122000
     23 H2           0.6630    -9.0460    20.0380 hc         1 T9P       0.063700
     24 H3           2.2710    -9.5810    20.5550 hc         1 T9P       0.063700
     25 H1           0.9210    -9.6670    21.6740 hc         1 T9P       0.063700
     26 H5           2.4590    -5.5880    22.5180 h1         1 T9P       0.101700
     27 H15          5.9930    -3.3430    19.7350 ha         1 T9P       0.113500
     28 H14          4.6970    -4.4230    20.4760 ha         1 T9P       0.113500
     29 H8           3.5330    -7.9930    27.2500 hn         1 T9P       0.315500
     30 H9           2.5330    -6.6120    27.0210 hn         1 T9P       0.315500
@<TRIPOS>BOND
     1     1     9 1   
     2     1    10 1   
     3     1    16 1   
     4     2     5 1   
     5     2     6 1   
     6     2    17 1   
     7     3     4 1   
     8     3    10 1   
     9     3    18 1   
    10     3    19 1   
    11     4    12 1   
    12     4    14 2   
    13     5    10 1   
    14     5    15 2   
    15     6     7 1   
    16     6    20 1   
    17     6    21 1   
    18     7    11 2   
    19     7    22 1   
    20     8     9 1   
    21     8    23 1   
    22     8    24 1   
    23     8    25 1   
    24     9    13 2   
    25    10    26 1   
    26    11    27 1   
    27    11    28 1   
    28    12    29 1   
    29    12    30 1   
@<TRIPOS>SUBSTRUCTURE
     1 T9P         1 TEMP              0 ****  ****    0 ROOT
