@<TRIPOS>MOLECULE
T9P
   30    29     1     0     0
SMALL
No Charge or Current Charge


@<TRIPOS>ATOM
      1 N1           2.4370    -6.9900    22.3930 ns         1 T9P      -0.518900
      2 N3           4.7850    -5.5790    22.1210 ns         1 T9P      -0.489900
      3 C4           2.6990    -6.8370    24.8710 c3         1 T9P      -0.172400
      4 C5           3.5990    -8.0670    25.0180 c          1 T9P       0.615100
      5 C6           4.1450    -5.3560    23.3210 c          1 T9P       0.603100
      6 C7           6.0790    -5.0210    21.7530 c3         1 T9P       0.135200
      7 C8           6.4340    -5.4710    20.3550 c2         1 T9P      -0.245200
      8 C1           1.1660    -7.9930    20.5660 c3         1 T9P      -0.181100
      9 C2           1.3290    -6.8750    21.5850 c          1 T9P       0.598100
     10 C3           2.7750    -6.0810    23.5190 c3         1 T9P       0.038700
     11 C9           6.6730    -6.7400    19.9830 c2         1 T9P      -0.304000
     12 N2           3.5320    -8.7000    26.2060 nt         1 T9P      -0.600000
     13 O1           0.5420    -5.9450    21.6740 o          1 T9P      -0.598100
     14 O2           4.3410    -8.4830    24.1440 o          1 T9P      -0.630100
     15 O3           4.6410    -4.6420    24.1830 o          1 T9P      -0.608100
     16 H4           3.0010    -7.8260    22.2700 hn         1 T9P       0.335500
     17 H10          4.3110    -6.1750    21.4550 hn         1 T9P       0.323500
     18 H6           2.8850    -6.1740    25.7250 hc         1 T9P       0.077200
     19 H7           1.6730    -7.1580    25.0890 hc         1 T9P       0.077200
     20 H12          6.0260    -3.9240    21.8010 h1         1 T9P       0.061200
     21 H11          6.8380    -5.3640    22.4690 h1         1 T9P       0.061200
     22 H13          6.4890    -4.6590    19.6250 ha         1 T9P       0.172000
     23 H2           0.2780    -7.8650    19.9370 hc         1 T9P       0.063700
     24 H3           2.0800    -8.0660    19.9660 hc         1 T9P       0.063700
     25 H1           1.1550    -8.9550    21.0910 hc         1 T9P       0.063700
     26 H5           2.0350    -5.2700    23.5460 h1         1 T9P       0.101700
     27 H15          6.9260    -6.9960    18.9530 ha         1 T9P       0.163500
     28 H14          6.6270    -7.5660    20.6950 ha         1 T9P       0.163500
     29 H8           4.1030    -9.5180    26.3610 hn         1 T9P       0.315500
     30 H9           2.9180    -8.3580    26.9300 hn         1 T9P       0.315500
@<TRIPOS>BOND
     1     1     9 1   
     2     1    10 1   
     3     1    16 1   
     4     2     5 1   
     5     2     6 1   
     6     2    17 1   
     7     3     4 1   
     8     3    10 1   
     9     3    18 1   
    10     3    19 1   
    11     4    12 1   
    12     4    14 2   
    13     5    10 1   
    14     5    15 2   
    15     6     7 1   
    16     6    20 1   
    17     6    21 1   
    18     7    11 2   
    19     7    22 1   
    20     8     9 1   
    21     8    23 1   
    22     8    24 1   
    23     8    25 1   
    24     9    13 2   
    25    10    26 1   
    26    11    27 1   
    27    11    28 1   
    28    12    29 1   
    29    12    30 1   
@<TRIPOS>SUBSTRUCTURE
     1 T9P         1 TEMP              0 ****  ****    0 ROOT
