@<TRIPOS>MOLECULE
T9Q
   26    26     1     0     0
SMALL
bcc


@<TRIPOS>ATOM
      1 C10         -0.6550    -6.0850     6.5760 ca         1 T9Q      -0.129000
      2 C13         -0.1720    -4.7270     4.2100 ca         1 T9Q      -0.116000
      3 C01          4.4230    -6.8090     7.3110 c3         1 T9Q       0.111700
      4 C03          5.3010    -4.7750     6.5400 c3         1 T9Q       0.040400
      5 C04          4.0900    -3.8770     6.3040 c          1 T9Q       0.633100
      6 C07          1.9310    -3.7040     5.1350 c3         1 T9Q       0.143300
      7 C08          0.7210    -4.5920     5.2680 ca         1 T9Q      -0.110300
      8 C09          0.4690    -5.2810     6.4530 ca         1 T9Q      -0.116000
      9 C11         -1.5440    -6.2120     5.5140 ca         1 T9Q      -0.123000
     10 C12         -1.3000    -5.5290     4.3320 ca         1 T9Q      -0.129000
     11 N06          3.1470    -4.3910     5.5040 ns         1 T9Q      -0.567900
     12 O02          5.0890    -6.1300     6.2680 os         1 T9Q      -0.403600
     13 O05          4.0480    -2.7590     6.7960 o          1 T9Q      -0.607100
     14 H1          -0.8390    -6.6140     7.5020 ha         1 T9Q       0.131500
     15 H2           0.0170    -4.2030     3.2810 ha         1 T9Q       0.131500
     16 H3           4.3070    -7.8480     7.0070 h1         1 T9Q       0.036367
     17 H4           5.0010    -6.7810     8.2410 h1         1 T9Q       0.036367
     18 H5           3.4290    -6.3970     7.5140 h1         1 T9Q       0.036367
     19 H6           5.6460    -4.6070     7.5670 h1         1 T9Q       0.075700
     20 H7           6.0960    -4.4250     5.8750 h1         1 T9Q       0.075700
     21 H8           2.0010    -3.3280     4.1110 h1         1 T9Q       0.063200
     22 H9           1.8320    -2.8330     5.7830 h1         1 T9Q       0.063200
     23 H10          1.1560    -5.1910     7.2860 ha         1 T9Q       0.131500
     24 H11         -2.4190    -6.8420     5.6100 ha         1 T9Q       0.132000
     25 H12         -1.9840    -5.6250     3.4980 ha         1 T9Q       0.131500
     26 H13          3.3110    -5.3040     5.1050 hn         1 T9Q       0.329500
@<TRIPOS>BOND
     1     1     8 ar  
     2     1     9 ar  
     3     1    14 1   
     4     2     7 ar  
     5     2    10 ar  
     6     2    15 1   
     7     3    12 1   
     8     3    16 1   
     9     3    17 1   
    10     3    18 1   
    11     4     5 1   
    12     4    12 1   
    13     4    19 1   
    14     4    20 1   
    15     5    11 1   
    16     5    13 2   
    17     6     7 1   
    18     6    11 1   
    19     6    21 1   
    20     6    22 1   
    21     7     8 ar  
    22     8    23 1   
    23     9    10 ar  
    24     9    24 1   
    25    10    25 1   
    26    11    26 1   
@<TRIPOS>SUBSTRUCTURE
     1 T9Q         1 TEMP              0 ****  ****    0 ROOT
