@<TRIPOS>MOLECULE
T9Q
   26    26     1     0     0
SMALL
No Charge or Current Charge


@<TRIPOS>ATOM
      1 C10         -1.1670    -6.0850     6.3700 ca         1 T9Q      -0.111000
      2 C13          0.0350    -4.7080     4.2360 ca         1 T9Q      -0.098000
      3 C01          4.7880    -6.5570     7.7000 c3         1 T9Q       0.134900
      4 C03          5.4100    -5.0230     5.9010 c3         1 T9Q       0.063600
      5 C04          4.2600    -3.9930     6.0180 c          1 T9Q       0.566100
      6 C07          1.7750    -3.6970     5.7880 c3         1 T9Q       0.143300
      7 C08          0.5600    -4.5740     5.5360 ca         1 T9Q      -0.110300
      8 C09         -0.0460    -5.2690     6.6020 ca         1 T9Q      -0.098000
      9 C11         -1.6880    -6.2120     5.0710 ca         1 T9Q      -0.105000
     10 C12         -1.0860    -5.5240     4.0040 ca         1 T9Q      -0.111000
     11 N06          3.0050    -4.4810     5.7350 ns         1 T9Q      -0.500900
     12 O02          5.0130    -6.3660     6.2900 os         1 T9Q      -0.450000
     13 O05          4.4430    -2.8220     6.3270 o          1 T9Q      -0.607100
     14 H1          -1.6310    -6.6190     7.1960 ha         1 T9Q       0.113500
     15 H2           0.4970    -4.1800     3.4030 ha         1 T9Q       0.113500
     16 H3           4.5090    -7.5980     7.9040 h1         1 T9Q       0.036367
     17 H4           5.6950    -6.3290     8.2750 h1         1 T9Q       0.036367
     18 H5           3.9760    -5.9120     8.0630 h1         1 T9Q       0.036367
     19 H6           6.2540    -4.6680     6.5070 h1         1 T9Q       0.075700
     20 H7           5.7260    -5.0190     4.8510 h1         1 T9Q       0.075700
     21 H8           1.8260    -2.9000     5.0340 h1         1 T9Q       0.063200
     22 H9           1.6930    -3.2240     6.7760 h1         1 T9Q       0.063200
     23 H10          0.3530    -5.1770     7.6100 ha         1 T9Q       0.113500
     24 H11         -2.5560    -6.8440     4.8920 ha         1 T9Q       0.114000
     25 H12         -1.4880    -5.6230     2.9980 ha         1 T9Q       0.113500
     26 H13          2.9460    -5.4670     5.5030 hn         1 T9Q       0.329500
@<TRIPOS>BOND
     1     1     8 ar  
     2     1     9 ar  
     3     1    14 1   
     4     2     7 ar  
     5     2    10 ar  
     6     2    15 1   
     7     3    12 1   
     8     3    16 1   
     9     3    17 1   
    10     3    18 1   
    11     4     5 1   
    12     4    12 1   
    13     4    19 1   
    14     4    20 1   
    15     5    11 1   
    16     5    13 2   
    17     6     7 1   
    18     6    11 1   
    19     6    21 1   
    20     6    22 1   
    21     7     8 ar  
    22     8    23 1   
    23     9    10 ar  
    24     9    24 1   
    25    10    25 1   
    26    11    26 1   
@<TRIPOS>SUBSTRUCTURE
     1 T9Q         1 TEMP              0 ****  ****    0 ROOT
