@<TRIPOS>MOLECULE
T9R
   46    49     1     0     0
SMALL
No Charge or Current Charge


@<TRIPOS>ATOM
      1 C12        -30.4430     1.5500     7.9640 ca         1 T9R       0.131100
      2 O1         -32.6750    -1.4690    15.5700 os         1 T9R      -0.456000
      3 C13        -30.4600     0.6080     9.0030 ca         1 T9R      -0.167500
      4 C14        -29.6310     0.7800    10.1250 ca         1 T9R      -0.062000
      5 C15        -33.2100    -2.0230    13.2160 c3         1 T9R       0.145600
      6 C16        -34.1510     0.3590    14.9860 c5         1 T9R       0.137300
      7 O2         -31.2510     1.3740     6.8810 oh         1 T9R      -0.540100
      8 O3         -34.2190    -2.5800    12.3560 oh         1 T9R      -0.731000
      9 O          -35.5350    -1.2550    16.2460 oh         1 T9R      -0.694000
     10 C7         -29.6810     2.9320    13.0250 ca         1 T9R       0.438900
     11 C9         -28.7800     1.9010    10.2140 ca         1 T9R      -0.139300
     12 C10        -28.7680     2.8440     9.1660 ca         1 T9R      -0.062000
     13 C11        -29.5980     2.6680     8.0440 ca         1 T9R      -0.167500
     14 N4         -28.4770     3.0840    12.3440 nu         1 T9R      -0.911100
     15 N          -31.5730     0.4770    14.7550 na         1 T9R      -0.296300
     16 C          -34.8960    -1.0130    14.9710 c5         1 T9R       0.110300
     17 N1         -29.5210     0.4780    13.7020 nc         1 T9R      -0.547100
     18 C1         -33.7060    -1.9830    14.6950 c5         1 T9R       0.130300
     19 N2         -32.0980     2.8560    14.3560 nb         1 T9R      -0.212000
     20 C2         -32.7150    -0.0190    15.5280 c5         1 T9R       0.314300
     21 C3         -30.4180    -0.2400    14.3980 cd         1 T9R       0.410700
     22 C4         -30.1320     1.7260    13.6260 ca         1 T9R      -0.082600
     23 C5         -31.3480     1.7400    14.2680 ca         1 T9R       0.147500
     24 C6         -31.5860     3.9630    13.7740 ca         1 T9R       0.178900
     25 N3         -30.4100     4.0580    13.1150 nb         1 T9R      -0.302000
     26 O4         -34.8800     1.2580    15.8300 oh         1 T9R      -0.675000
     27 H1         -31.1140    -0.2570     8.9410 ha         1 T9R       0.121000
     28 H2         -29.6510     0.0440    10.9250 ha         1 T9R       0.115500
     29 H3         -32.9450    -1.0120    12.8790 h1         1 T9R       0.036200
     30 H4         -32.2990    -2.6350    13.1740 h1         1 T9R       0.036200
     31 H5         -34.0800     0.7660    13.9680 h1         1 T9R       0.041700
     32 H6         -31.1080     2.1220     6.2620 ho         1 T9R       0.462000
     33 H7         -33.8310    -2.6400    11.4500 ho         1 T9R       0.512000
     34 H8         -35.9270    -2.1610    16.2130 ho         1 T9R       0.509000
     35 H9         -27.7200     1.1350    11.9390 h1         1 T9R       0.070700
     36 H10        -26.8960     2.4450    11.0920 h1         1 T9R       0.070700
     37 H11        -28.1160     3.7130     9.2220 ha         1 T9R       0.115500
     38 H12        -29.5780     3.4040     7.2440 ha         1 T9R       0.121000
     39 H13        -28.2950     4.0570    12.0990 hn         1 T9R       0.500000
     40 H14        -35.6370    -1.0520    14.1600 h1         1 T9R       0.065700
     41 H15        -33.9440    -3.0120    14.9970 h1         1 T9R       0.089700
     42 H16        -32.5810     0.3770    16.5440 h2         1 T9R       0.130700
     43 H17        -30.2980    -1.2810    14.6750 h5         1 T9R       0.060800
     44 H18        -32.1820     4.8710    13.8440 h5         1 T9R       0.048100
     45 H19        -35.4190     0.6320    16.3800 ho         1 T9R       0.511000
     46 C8         -27.8830     2.0960    11.4310 c3         1 T9R       0.283100
@<TRIPOS>BOND
     1     1     3 ar  
     2     1     7 1   
     3     1    13 ar  
     4     2    18 1   
     5     2    20 1   
     6     3     4 ar  
     7     3    27 1   
     8     4    11 ar  
     9     4    28 1   
    10     5     8 1   
    11     5    18 1   
    12     5    29 1   
    13     5    30 1   
    14     6    16 1   
    15     6    20 1   
    16     6    26 1   
    17     6    31 1   
    18     7    32 1   
    19     8    33 1   
    20     9    16 1   
    21     9    34 1   
    22    10    14 1   
    23    10    22 ar  
    24    10    25 ar  
    25    11    12 ar  
    26    11    46 1   
    27    12    13 ar  
    28    12    37 1   
    29    13    38 1   
    30    14    39 1   
    31    14    46 1   
    32    15    20 1   
    33    15    21 1   
    34    15    23 1   
    35    16    18 1   
    36    16    40 1   
    37    17    21 2   
    38    17    22 1   
    39    18    41 1   
    40    19    23 ar  
    41    19    24 ar  
    42    20    42 1   
    43    21    43 1   
    44    22    23 ar  
    45    24    25 ar  
    46    24    44 1   
    47    26    45 1   
    48    35    46 1   
    49    36    46 1   
@<TRIPOS>SUBSTRUCTURE
     1 T9R         1 TEMP              0 ****  ****    0 ROOT
