@<TRIPOS>MOLECULE
T9R
   46    49     1     0     0
SMALL
abcg2


@<TRIPOS>ATOM
      1 C12        -30.5110     2.4310     7.6770 ca         1 T9R       0.131100
      2 O1         -32.6050    -0.9670    15.6240 os         1 T9R      -0.456000
      3 C13        -29.7910     1.2480     7.8410 ca         1 T9R      -0.167500
      4 C14        -28.9670     1.0930     8.9460 ca         1 T9R      -0.062000
      5 C15        -33.4490    -3.1310    14.9720 c3         1 T9R       0.145600
      6 C16        -34.1750    -0.1170    14.0980 c5         1 T9R       0.137300
      7 O2         -31.3100     2.5420     6.5730 oh         1 T9R      -0.540100
      8 O3         -34.4990    -4.0470    15.2780 oh         1 T9R      -0.731000
      9 O          -35.5750    -0.2110    16.0370 oh         1 T9R      -0.694000
     10 C7         -29.1590     2.7030    13.0520 ca         1 T9R       0.438900
     11 C9         -28.8360     2.1010     9.9020 ca         1 T9R      -0.139300
     12 C10        -29.5660     3.2720     9.7270 ca         1 T9R      -0.062000
     13 C11        -30.4010     3.4420     8.6270 ca         1 T9R      -0.167500
     14 N4         -28.1230     2.7860    12.1970 nu         1 T9R      -0.911100
     15 N          -31.7710     0.5570    14.0580 na         1 T9R      -0.296300
     16 C          -34.9220    -1.0300    15.0760 c5         1 T9R       0.110300
     17 N1         -30.1580     0.3880    12.5100 nc         1 T9R      -0.547100
     18 C1         -33.7660    -1.8290    15.6880 c5         1 T9R       0.130300
     19 N2         -31.2380     2.7530    14.9630 nb         1 T9R      -0.212000
     20 C2         -32.9030     0.2040    14.8810 c5         1 T9R       0.314300
     21 C3         -31.1840    -0.2000    13.0660 cd         1 T9R       0.410700
     22 C4         -30.0450     1.6100    13.1620 ca         1 T9R      -0.082600
     23 C5         -31.0440     1.7230    14.1360 ca         1 T9R       0.147500
     24 C6         -30.3410     3.7200    14.7700 ca         1 T9R       0.178900
     25 N3         -29.3470     3.7520    13.8840 nb         1 T9R      -0.302000
     26 O4         -34.8150     1.0820    13.7290 oh         1 T9R      -0.675000
     27 H1         -29.8880     0.4600     7.1040 ha         1 T9R       0.121000
     28 H2         -28.4180     0.1660     9.0700 ha         1 T9R       0.115500
     29 H3         -33.3730    -2.9670    13.8920 h1         1 T9R       0.036200
     30 H4         -32.4840    -3.5010    15.3310 h1         1 T9R       0.036200
     31 H5         -33.9150    -0.7050    13.2140 h1         1 T9R       0.041700
     32 H6         -31.7490     3.4040     6.5720 ho         1 T9R       0.462000
     33 H7         -34.3820    -4.8390    14.7400 ho         1 T9R       0.512000
     34 H8         -36.0110    -0.7880    16.6770 ho         1 T9R       0.509000
     35 H9         -27.9430     0.8690    11.4040 h1         1 T9R       0.070700
     36 H10        -26.8610     2.0820    10.7460 h1         1 T9R       0.070700
     37 H11        -29.4940     4.0690    10.4570 ha         1 T9R       0.115500
     38 H12        -30.9660     4.3590     8.5050 ha         1 T9R       0.121000
     39 H13        -27.6360     3.6700    12.2110 hn         1 T9R       0.500000
     40 H14        -35.6360    -1.6830    14.5690 h1         1 T9R       0.065700
     41 H15        -33.9740    -2.0430    16.7390 h1         1 T9R       0.089700
     42 H16        -33.0760     1.0560    15.5410 h2         1 T9R       0.130700
     43 H17        -31.5570    -1.1790    12.8110 h5         1 T9R       0.060800
     44 H18        -30.4320     4.5920    15.4090 h5         1 T9R       0.048100
     45 H19        -35.4830     0.8850    13.0610 ho         1 T9R       0.511000
     46 C8         -27.8880     1.9030    11.0690 c3         1 T9R       0.283100
@<TRIPOS>BOND
     1     1     3 ar  
     2     1     7 1   
     3     1    13 ar  
     4     2    18 1   
     5     2    20 1   
     6     3     4 ar  
     7     3    27 1   
     8     4    11 ar  
     9     4    28 1   
    10     5     8 1   
    11     5    18 1   
    12     5    29 1   
    13     5    30 1   
    14     6    16 1   
    15     6    20 1   
    16     6    26 1   
    17     6    31 1   
    18     7    32 1   
    19     8    33 1   
    20     9    16 1   
    21     9    34 1   
    22    10    14 1   
    23    10    22 ar  
    24    10    25 ar  
    25    11    12 ar  
    26    11    46 1   
    27    12    13 ar  
    28    12    37 1   
    29    13    38 1   
    30    14    39 1   
    31    14    46 1   
    32    15    20 1   
    33    15    21 1   
    34    15    23 1   
    35    16    18 1   
    36    16    40 1   
    37    17    21 2   
    38    17    22 1   
    39    18    41 1   
    40    19    23 ar  
    41    19    24 ar  
    42    20    42 1   
    43    21    43 1   
    44    22    23 ar  
    45    24    25 ar  
    46    24    44 1   
    47    26    45 1   
    48    35    46 1   
    49    36    46 1   
@<TRIPOS>SUBSTRUCTURE
     1 T9R         1 TEMP              0 ****  ****    0 ROOT
