@<TRIPOS>MOLECULE
T9S
   26    27     1     0     0
SMALL
No Charge or Current Charge


@<TRIPOS>ATOM
      1 C4          45.8760    27.2330    28.6340 ca         1 T9S      -0.069300
      2 C5          45.2700    26.1380    28.0020 ca         1 T9S      -0.144000
      3 C6          45.9350    25.5600    26.9020 ca         1 T9S       0.339900
      4 N1          47.1270    26.0140    26.4310 nb         1 T9S      -0.663000
      5 C7          47.6940    27.0760    27.0590 ca         1 T9S       0.359900
      6 C8          47.0830    27.6970    28.1600 ca         1 T9S      -0.159300
      7 C9          47.5930    28.8720    28.9480 c5         1 T9S       0.175300
      8 O1          47.4240    30.8260    31.0490 o          1 T9S      -0.543000
      9 O           45.4140    29.9580    31.7410 os         1 T9S      -0.464100
     10 C1          45.3060    30.9240    32.7990 c3         1 T9S       0.184600
     11 C           43.9900    30.6450    33.5430 c3         1 T9S      -0.100100
     12 N           46.4940    29.0200    29.9530 n          1 T9S      -0.419800
     13 C3          45.3820    28.0240    29.8160 c5         1 T9S       0.165300
     14 H1          44.3180    25.7410    28.3440 ha         1 T9S       0.129000
     15 H2          45.5010    24.7070    26.3800 h4         1 T9S       0.022100
     16 H3          48.6490    27.4290    26.6700 h4         1 T9S       0.025100
     17 H4          48.5570    28.6530    29.4260 h1         1 T9S       0.069700
     18 H5          47.6950    29.7680    28.3210 h1         1 T9S       0.069700
     19 H6          46.1480    30.8360    33.4980 h1         1 T9S       0.049700
     20 H7          45.2900    31.9460    32.3970 h1         1 T9S       0.049700
     21 H8          43.8610    31.3600    34.3640 hc         1 T9S       0.047033
     22 H9          43.1350    30.7420    32.8640 hc         1 T9S       0.047033
     23 H10         43.9920    29.6330    33.9640 hc         1 T9S       0.047033
     24 H11         44.4210    28.5100    29.6050 h1         1 T9S       0.066700
     25 H12         45.2830    27.3950    30.7110 h1         1 T9S       0.066700
     26 C2          46.5180    30.0130    30.9360 c          1 T9S       0.649100
@<TRIPOS>BOND
     1     1     2 ar  
     2     1     6 ar  
     3     1    13 1   
     4     2     3 ar  
     5     2    14 1   
     6     3     4 ar  
     7     3    15 1   
     8     4     5 ar  
     9     5     6 ar  
    10     5    16 1   
    11     6     7 1   
    12     7    12 1   
    13     7    17 1   
    14     7    18 1   
    15     8    26 2   
    16     9    10 1   
    17     9    26 1   
    18    10    11 1   
    19    10    19 1   
    20    10    20 1   
    21    11    21 1   
    22    11    22 1   
    23    11    23 1   
    24    12    13 1   
    25    12    26 1   
    26    13    24 1   
    27    13    25 1   
@<TRIPOS>SUBSTRUCTURE
     1 T9S         1 TEMP              0 ****  ****    0 ROOT
