@<TRIPOS>MOLECULE
T9S
   26    27     1     0     0
SMALL
abcg2


@<TRIPOS>ATOM
      1 C4          45.8660    27.2290    28.6480 ca         1 T9S      -0.069300
      2 C5          45.2750    26.1540    28.0110 ca         1 T9S      -0.144000
      3 C6          45.9500    25.6160    26.9230 ca         1 T9S       0.339900
      4 N1          47.1140    26.0730    26.4720 nb         1 T9S      -0.663000
      5 C7          47.6700    27.1080    27.0930 ca         1 T9S       0.359900
      6 C8          47.0770    27.7150    28.1850 ca         1 T9S      -0.159300
      7 C9          47.5400    28.8740    29.0070 c5         1 T9S       0.175300
      8 O1          47.3890    30.7760    31.0240 o          1 T9S      -0.543000
      9 O           45.4230    29.9100    31.7090 os         1 T9S      -0.464100
     10 C1          45.3190    30.8930    32.7460 c3         1 T9S       0.184600
     11 C           44.0310    30.6380    33.4900 c3         1 T9S      -0.100100
     12 N           46.4630    28.9960    29.9820 n          1 T9S      -0.419800
     13 C3          45.3960    28.0140    29.8290 c5         1 T9S       0.165300
     14 H1          44.3280    25.7400    28.3330 ha         1 T9S       0.129000
     15 H2          45.5260    24.7720    26.3910 h4         1 T9S       0.022100
     16 H3          48.6200    27.4610    26.7040 h4         1 T9S       0.025100
     17 H4          48.5020    28.6800    29.4890 h1         1 T9S       0.069700
     18 H5          47.6480    29.7840    28.4110 h1         1 T9S       0.069700
     19 H6          46.1760    30.8160    33.4180 h1         1 T9S       0.049700
     20 H7          45.3230    31.8940    32.3100 h1         1 T9S       0.049700
     21 H8          43.9260    31.3740    34.2870 hc         1 T9S       0.047033
     22 H9          43.1640    30.7280    32.8350 hc         1 T9S       0.047033
     23 H10         44.0200    29.6480    33.9470 hc         1 T9S       0.047033
     24 H11         44.4280    28.4850    29.6390 h1         1 T9S       0.066700
     25 H12         45.2880    27.3810    30.7140 h1         1 T9S       0.066700
     26 C2          46.4940    29.9600    30.9170 c          1 T9S       0.649100
@<TRIPOS>BOND
     1     1     2 ar  
     2     1     6 ar  
     3     1    13 1   
     4     2     3 ar  
     5     2    14 1   
     6     3     4 ar  
     7     3    15 1   
     8     4     5 ar  
     9     5     6 ar  
    10     5    16 1   
    11     6     7 1   
    12     7    12 1   
    13     7    17 1   
    14     7    18 1   
    15     8    26 2   
    16     9    10 1   
    17     9    26 1   
    18    10    11 1   
    19    10    19 1   
    20    10    20 1   
    21    11    21 1   
    22    11    22 1   
    23    11    23 1   
    24    12    13 1   
    25    12    26 1   
    26    13    24 1   
    27    13    25 1   
@<TRIPOS>SUBSTRUCTURE
     1 T9S         1 TEMP              0 ****  ****    0 ROOT
