@<TRIPOS>MOLECULE
T9V
   23    23     1     0     0
SMALL
No Charge or Current Charge


@<TRIPOS>ATOM
      1 C4          23.7710    14.5390    36.8300 ca         1 T9V      -0.144000
      2 C5          23.5420    13.3740    37.5760 ca         1 T9V       0.114100
      3 C6          24.4380    13.0280    38.6110 ca         1 T9V      -0.144000
      4 C7          25.5490    13.8470    38.8880 ca         1 T9V      -0.113000
      5 C8          22.1140    11.3980    37.9660 c3         1 T9V       0.148900
      6 O           28.1040    15.0000    40.1140 o          1 T9V      -0.585100
      7 C1          27.9330    15.8700    39.2680 c          1 T9V       0.606100
      8 C           28.8970    17.0450    39.1330 c3         1 T9V      -0.183100
      9 C2          25.7800    15.0200    38.1360 ca         1 T9V      -0.057000
     10 O1          22.4360    12.6100    37.2600 os         1 T9V      -0.342100
     11 C3          24.8800    15.3560    37.1070 ca         1 T9V      -0.113000
     12 H1          23.0840    14.8110    36.0320 ha         1 T9V       0.123000
     13 H2          24.2900    12.1330    39.2080 ha         1 T9V       0.123000
     14 H3          26.2150    13.5480    39.6910 ha         1 T9V       0.128000
     15 H4          21.2000    10.9510    37.5550 h1         1 T9V       0.040033
     16 H5          22.9240    10.6630    37.8700 h1         1 T9V       0.040033
     17 H6          21.9440    11.6000    39.0310 h1         1 T9V       0.040033
     18 H7          29.7180    17.0050    39.8580 hc         1 T9V       0.063033
     19 H8          29.2690    17.0850    38.1030 hc         1 T9V       0.063033
     20 H9          28.3320    17.9810    39.2130 hc         1 T9V       0.063033
     21 H10         26.9010    16.6910    37.7340 hn         1 T9V       0.147000
     22 H11         25.0400    16.2560    36.5160 ha         1 T9V       0.128000
     23 N           26.8810    15.8950    38.3600 ns         1 T9V      -0.147000
@<TRIPOS>BOND
     1     1     2 ar  
     2     1    11 ar  
     3     1    12 1   
     4     2     3 ar  
     5     2    10 1   
     6     3     4 ar  
     7     3    13 1   
     8     4     9 ar  
     9     4    14 1   
    10     5    10 1   
    11     5    15 1   
    12     5    16 1   
    13     5    17 1   
    14     6     7 2   
    15     7     8 1   
    16     7    23 1   
    17     8    18 1   
    18     8    19 1   
    19     8    20 1   
    20     9    11 ar  
    21     9    23 1   
    22    11    22 1   
    23    21    23 1   
@<TRIPOS>SUBSTRUCTURE
     1 T9V         1 TEMP              0 ****  ****    0 ROOT
