@<TRIPOS>MOLECULE
T9V
   23    23     1     0     0
SMALL
abcg2


@<TRIPOS>ATOM
      1 C4          23.8010    14.5110    36.8180 ca         1 T9V      -0.144000
      2 C5          23.5580    13.3700    37.5840 ca         1 T9V       0.114100
      3 C6          24.4250    13.0720    38.6270 ca         1 T9V      -0.144000
      4 C7          25.5170    13.8910    38.9050 ca         1 T9V      -0.113000
      5 C8          22.2140    11.4600    37.9900 c3         1 T9V       0.148900
      6 O           28.0360    14.8940    39.9770 o          1 T9V      -0.585100
      7 C1          27.8760    15.8210    39.2000 c          1 T9V       0.606100
      8 C           28.8290    16.9880    39.1170 c3         1 T9V      -0.183100
      9 C2          25.7630    15.0270    38.1400 ca         1 T9V      -0.057000
     10 O1          22.4790    12.6320    37.2460 os         1 T9V      -0.342100
     11 C3          24.8840    15.3200    37.0930 ca         1 T9V      -0.113000
     12 H1          23.1360    14.7630    36.0010 ha         1 T9V       0.123000
     13 H2          24.2800    12.2010    39.2510 ha         1 T9V       0.123000
     14 H3          26.1630    13.6210    39.7240 ha         1 T9V       0.128000
     15 H4          21.3260    11.0090    37.5540 h1         1 T9V       0.040033
     16 H5          23.0380    10.7430    37.9330 h1         1 T9V       0.040033
     17 H6          22.0150    11.6800    39.0430 h1         1 T9V       0.040033
     18 H7          29.7020    16.8020    39.7360 hc         1 T9V       0.063033
     19 H8          29.1550    17.1630    38.0910 hc         1 T9V       0.063033
     20 H9          28.3430    17.9010    39.4650 hc         1 T9V       0.063033
     21 H10         26.8230    16.7250    37.7420 hn         1 T9V       0.147000
     22 H11         25.0490    16.1980    36.4800 ha         1 T9V       0.128000
     23 N           26.8280    15.9140    38.3430 ns         1 T9V      -0.147000
@<TRIPOS>BOND
     1     1     2 ar  
     2     1    11 ar  
     3     1    12 1   
     4     2     3 ar  
     5     2    10 1   
     6     3     4 ar  
     7     3    13 1   
     8     4     9 ar  
     9     4    14 1   
    10     5    10 1   
    11     5    15 1   
    12     5    16 1   
    13     5    17 1   
    14     6     7 2   
    15     7     8 1   
    16     7    23 1   
    17     8    18 1   
    18     8    19 1   
    19     8    20 1   
    20     9    11 ar  
    21     9    23 1   
    22    11    22 1   
    23    21    23 1   
@<TRIPOS>SUBSTRUCTURE
     1 T9V         1 TEMP              0 ****  ****    0 ROOT
