@<TRIPOS>MOLECULE
T9W
   28    29     1     0     0
SMALL
abcg2


@<TRIPOS>ATOM
      1 C10         -1.5460    -6.7710     5.3070 c5         1 T9W      -0.171400
      2 C15          6.6850    -4.1360     5.9280 c3         1 T9W      -0.001400
      3 C01          1.9070    -4.0220     6.2100 ca         1 T9W      -0.054500
      4 C02          3.1370    -3.3970     6.2170 ca         1 T9W      -0.189500
      5 C03          4.3130    -4.1390     6.0570 ca         1 T9W       0.189100
      6 C04          4.2250    -5.5210     5.8870 ca         1 T9W      -0.189500
      7 C05          2.9820    -6.1390     5.8710 ca         1 T9W      -0.054500
      8 C06          1.8240    -5.3990     6.0330 ca         1 T9W      -0.141000
      9 C08         -0.3210    -5.9670     4.9550 c          1 T9W       0.567000
     10 C11         -1.2970    -7.2830     6.7200 c5         1 T9W      -0.171400
     11 C12          0.0790    -6.7880     7.0840 c          1 T9W       0.567000
     12 C16          7.8800    -3.1640     5.9830 c          1 T9W       0.731000
     13 N07          0.5590    -6.0390     6.0230 n          1 T9W      -0.197000
     14 O09         -0.1020    -5.3590     3.9400 o          1 T9W      -0.491000
     15 O13          0.6880    -6.9820     8.1040 o          1 T9W      -0.491000
     16 O17          8.9750    -3.7350     5.8220 o          1 T9W      -0.709500
     17 O18          7.6570    -1.9600     6.1760 o          1 T9W      -0.709500
     18 H1          -2.4290    -6.1370     5.2280 hc         1 T9W       0.076950
     19 H2           6.7050    -4.6740     4.9730 h1         1 T9W       0.019700
     20 H3           6.8040    -4.8860     6.7210 h1         1 T9W       0.019700
     21 H4           1.0050    -3.4380     6.3450 ha         1 T9W       0.103000
     22 H5           3.2010    -2.3250     6.3510 ha         1 T9W       0.128500
     23 H6           5.1080    -6.1320     5.7620 ha         1 T9W       0.128500
     24 H7           2.9220    -7.2110     5.7270 ha         1 T9W       0.103000
     25 H8          -2.0140    -6.8920     7.4430 hc         1 T9W       0.076950
     26 H10         -1.6610    -7.5750     4.5790 hc         1 T9W       0.076950
     27 H11         -1.3240    -8.3700     6.7960 hc         1 T9W       0.076950
     28 O14          5.4570    -3.4460     6.0820 os         1 T9W      -0.290100
@<TRIPOS>BOND
     1     1     9 1   
     2     1    10 1   
     3     1    18 1   
     4     1    26 1   
     5     2    12 1   
     6     2    19 1   
     7     2    20 1   
     8     2    28 1   
     9     3     4 ar  
    10     3     8 ar  
    11     3    21 1   
    12     4     5 ar  
    13     4    22 1   
    14     5     6 ar  
    15     5    28 1   
    16     6     7 ar  
    17     6    23 1   
    18     7     8 ar  
    19     7    24 1   
    20     8    13 1   
    21     9    13 1   
    22     9    14 2   
    23    10    11 1   
    24    10    25 1   
    25    10    27 1   
    26    11    13 1   
    27    11    15 2   
    28    12    16 1   
    29    12    17 1   
@<TRIPOS>SUBSTRUCTURE
     1 T9W         1 TEMP              0 ****  ****    0 ROOT
