@<TRIPOS>MOLECULE
T9W
   28    29     1     0     0
SMALL
No Charge or Current Charge


@<TRIPOS>ATOM
      1 C10         -1.5630    -6.8660     5.2800 c5         1 T9W      -0.171400
      2 C15          6.7750    -4.1270     5.9760 c3         1 T9W      -0.001400
      3 C01          1.8630    -3.9960     6.0600 ca         1 T9W      -0.054500
      4 C02          3.1170    -3.3620     6.0580 ca         1 T9W      -0.189500
      5 C03          4.2980    -4.1180     6.0170 ca         1 T9W       0.189100
      6 C04          4.2190    -5.5260     5.9760 ca         1 T9W      -0.189500
      7 C05          2.9650    -6.1620     5.9790 ca         1 T9W      -0.054500
      8 C06          1.7780    -5.4020     6.0210 ca         1 T9W      -0.141000
      9 C08         -0.5210    -5.7510     5.0980 c          1 T9W       0.567000
     10 C11         -1.3710    -7.2390     6.7730 c5         1 T9W      -0.171400
     11 C12          0.1450    -7.0540     6.9500 c          1 T9W       0.567000
     12 C16          7.9950    -3.1580     5.9850 c          1 T9W       0.731000
     13 N07          0.4890    -6.0580     6.0230 n          1 T9W      -0.197000
     14 O09         -0.6040    -4.7300     4.4270 o          1 T9W      -0.491000
     15 O13          0.9220    -7.7210     7.6200 o          1 T9W      -0.491000
     16 O17          9.1130    -3.6570     5.9520 o          1 T9W      -0.709500
     17 O18          7.8060    -1.9480     6.0240 o          1 T9W      -0.709500
     18 H1          -2.5670    -6.5450     4.9830 hc         1 T9W       0.076950
     19 H2           6.8450    -4.7380     5.0670 h1         1 T9W       0.019700
     20 H3           6.8740    -4.7910     6.8440 h1         1 T9W       0.019700
     21 H4           0.9610    -3.3900     6.1040 ha         1 T9W       0.103000
     22 H5           3.1750    -2.2770     6.0920 ha         1 T9W       0.128500
     23 H6           5.1140    -6.1390     5.9410 ha         1 T9W       0.128500
     24 H7           2.9210    -7.2480     5.9370 ha         1 T9W       0.103000
     25 H8          -1.8760    -6.4850     7.3880 hc         1 T9W       0.076950
     26 H10         -1.2520    -7.7190     4.6640 hc         1 T9W       0.076950
     27 H11         -1.7020    -8.2390     7.0720 hc         1 T9W       0.076950
     28 O14          5.5010    -3.4400     6.0170 os         1 T9W      -0.290100
@<TRIPOS>BOND
     1     1     9 1   
     2     1    10 1   
     3     1    18 1   
     4     1    26 1   
     5     2    12 1   
     6     2    19 1   
     7     2    20 1   
     8     2    28 1   
     9     3     4 ar  
    10     3     8 ar  
    11     3    21 1   
    12     4     5 ar  
    13     4    22 1   
    14     5     6 ar  
    15     5    28 1   
    16     6     7 ar  
    17     6    23 1   
    18     7     8 ar  
    19     7    24 1   
    20     8    13 1   
    21     9    13 1   
    22     9    14 2   
    23    10    11 1   
    24    10    25 1   
    25    10    27 1   
    26    11    13 1   
    27    11    15 2   
    28    12    16 1   
    29    12    17 1   
@<TRIPOS>SUBSTRUCTURE
     1 T9W         1 TEMP              0 ****  ****    0 ROOT
