@<TRIPOS>MOLECULE
T9X
   28    29     1     0     0
SMALL
abcg2


@<TRIPOS>ATOM
      1 N1          -4.7770    12.6720   -41.0310 nc         1 T9X      -0.368300
      2 C4          -4.7360    11.3950   -40.7810 cd         1 T9X       0.527300
      3 C5          -4.2340    10.7980   -39.4880 c5         1 T9X       0.146200
      4 C6          -3.2240    11.6940   -38.7670 c5         1 T9X      -0.082400
      5 C7          -1.9100    11.3520   -39.4770 c5         1 T9X      -0.100400
      6 C8          -2.0380     9.8460   -39.7490 c5         1 T9X       0.151800
      7 N           -5.2200    10.6120   -41.8060 nd         1 T9X      -0.737000
      8 C           -5.8230     9.8860   -44.6180 c3         1 T9X      -0.086100
      9 O           -5.3350    12.7380   -42.3290 os         1 T9X      -0.118700
     10 C2          -7.7290    11.4140   -43.9180 c3         1 T9X      -0.086100
     11 C3          -5.5670    11.4750   -42.7130 cc         1 T9X       0.505300
     12 N2          -3.4930     9.5470   -39.7060 n7         1 T9X      -0.866400
     13 H1          -5.1160    10.6090   -38.8680 h1         1 T9X       0.090700
     14 H2          -3.4850    12.7490   -38.8170 hc         1 T9X       0.064700
     15 H3          -3.1820    11.3990   -37.7170 hc         1 T9X       0.064700
     16 H4          -1.0310    11.5950   -38.8810 hc         1 T9X       0.051700
     17 H5          -1.8440    11.9040   -40.4160 hc         1 T9X       0.051700
     18 H6          -1.5250     9.2680   -38.9750 h1         1 T9X       0.044700
     19 H7          -1.6040     9.5650   -40.7110 h1         1 T9X       0.044700
     20 H8          -4.7420     9.7830   -44.7140 hc         1 T9X       0.048200
     21 H9          -6.1910     9.0810   -43.9810 hc         1 T9X       0.048200
     22 H10         -6.2710     9.7730   -45.6060 hc         1 T9X       0.048200
     23 H11         -5.8300    12.0380   -44.7030 hc         1 T9X       0.073700
     24 H12         -7.9910    12.3930   -43.5160 hc         1 T9X       0.048200
     25 H13         -8.1860    11.3090   -44.9020 hc         1 T9X       0.048200
     26 H14         -8.1410    10.6450   -43.2610 hc         1 T9X       0.048200
     27 H15         -3.8050     9.0880   -40.5510 hn         1 T9X       0.437000
     28 C1          -6.2030    11.2510   -44.0430 c3         1 T9X      -0.098000
@<TRIPOS>BOND
     1     1     2 2   
     2     1     9 1   
     3     2     3 1   
     4     2     7 1   
     5     3     4 1   
     6     3    12 1   
     7     3    13 1   
     8     4     5 1   
     9     4    14 1   
    10     4    15 1   
    11     5     6 1   
    12     5    16 1   
    13     5    17 1   
    14     6    12 1   
    15     6    18 1   
    16     6    19 1   
    17     7    11 2   
    18     8    20 1   
    19     8    21 1   
    20     8    22 1   
    21     8    28 1   
    22     9    11 1   
    23    10    24 1   
    24    10    25 1   
    25    10    26 1   
    26    10    28 1   
    27    11    28 1   
    28    12    27 1   
    29    23    28 1   
@<TRIPOS>SUBSTRUCTURE
     1 T9X         1 TEMP              0 ****  ****    0 ROOT
