@<TRIPOS>MOLECULE
T9X
   28    29     1     0     0
SMALL
No Charge or Current Charge


@<TRIPOS>ATOM
      1 N1          -5.4980    12.9220   -40.6260 nc         1 T9X      -0.368300
      2 C4          -4.9300    11.7240   -40.6260 cd         1 T9X       0.527300
      3 C5          -4.0630    11.2160   -39.4560 c5         1 T9X       0.146200
      4 C6          -2.5730    11.6430   -39.6910 c5         1 T9X      -0.082400
      5 C7          -1.8550    10.2910   -39.9330 c5         1 T9X      -0.100400
      6 C8          -2.6300     9.3930   -38.9510 c5         1 T9X       0.151800
      7 N           -5.1820    10.9750   -41.7610 nd         1 T9X      -0.737000
      8 C           -5.4480    11.3220   -44.9130 c3         1 T9X      -0.086100
      9 O           -6.1820    12.9770   -41.8590 os         1 T9X      -0.118700
     10 C2          -7.5290    10.3260   -43.8080 c3         1 T9X      -0.086100
     11 C3          -5.9430    11.7830   -42.4680 cc         1 T9X       0.505300
     12 N2          -4.0320     9.7180   -39.2810 n7         1 T9X      -0.866400
     13 H1          -4.4380    11.6970   -38.5410 h1         1 T9X       0.090700
     14 H2          -2.4450    12.3380   -40.5300 hc         1 T9X       0.064700
     15 H3          -2.1740    12.1440   -38.8010 hc         1 T9X       0.064700
     16 H4          -0.7830    10.3350   -39.7090 hc         1 T9X       0.051700
     17 H5          -1.9660     9.9490   -40.9690 hc         1 T9X       0.051700
     18 H6          -2.4010     9.6520   -37.9070 h1         1 T9X       0.044700
     19 H7          -2.4110     8.3250   -39.0960 h1         1 T9X       0.044700
     20 H8          -4.7820    12.1930   -44.9490 hc         1 T9X       0.048200
     21 H9          -4.8380    10.4350   -44.7010 hc         1 T9X       0.048200
     22 H10         -5.8990    11.1990   -45.9050 hc         1 T9X       0.048200
     23 H11         -7.1150    12.4030   -44.1190 hc         1 T9X       0.073700
     24 H12         -8.3220    10.5000   -43.0710 hc         1 T9X       0.048200
     25 H13         -8.0020    10.1940   -44.7890 hc         1 T9X       0.048200
     26 H14         -7.0160     9.3930   -43.5460 hc         1 T9X       0.048200
     27 H15         -4.2360     9.3170   -40.2090 hn         1 T9X       0.437000
     28 C1          -6.5380    11.5140   -43.8320 c3         1 T9X      -0.098000
@<TRIPOS>BOND
     1     1     2 2   
     2     1     9 1   
     3     2     3 1   
     4     2     7 1   
     5     3     4 1   
     6     3    12 1   
     7     3    13 1   
     8     4     5 1   
     9     4    14 1   
    10     4    15 1   
    11     5     6 1   
    12     5    16 1   
    13     5    17 1   
    14     6    12 1   
    15     6    18 1   
    16     6    19 1   
    17     7    11 2   
    18     8    20 1   
    19     8    21 1   
    20     8    22 1   
    21     8    28 1   
    22     9    11 1   
    23    10    24 1   
    24    10    25 1   
    25    10    26 1   
    26    10    28 1   
    27    11    28 1   
    28    12    27 1   
    29    23    28 1   
@<TRIPOS>SUBSTRUCTURE
     1 T9X         1 TEMP              0 ****  ****    0 ROOT
