@<TRIPOS>MOLECULE
T9Y
   21    21     1     0     0
SMALL
abcg2


@<TRIPOS>ATOM
      1 C4          10.2300    -1.8410   -11.6900 cc         1 T9Y       0.289900
      2 C5          10.5840     0.2420   -12.2990 cd         1 T9Y      -0.215300
      3 C6          10.7690     1.7120   -12.4860 c3         1 T9Y       0.397300
      4 N1          10.7420    -0.6150   -13.3130 na         1 T9Y       0.035800
      5 F2          11.7570     2.1900   -11.7320 f          1 T9Y      -0.100333
      6 F           11.0760     1.9800   -13.7600 f          1 T9Y      -0.100333
      7 F1           9.6630     2.3920   -12.1930 f          1 T9Y      -0.100333
      8 N           10.5350    -1.8760   -12.9690 nd         1 T9Y      -0.496800
      9 C3          10.2430    -0.5230   -11.1970 cc         1 T9Y      -0.202600
     10 C2           9.9440    -0.1490    -9.8130 c          1 T9Y       0.643700
     11 O1           9.6110    -0.9550    -8.9780 o          1 T9Y      -0.483000
     12 O           10.0900     1.1460    -9.6010 os         1 T9Y      -0.445100
     13 C1           9.8110     1.6750    -8.2950 c3         1 T9Y       0.171600
     14 C            8.3360     1.9400    -8.0940 c3         1 T9Y      -0.123100
     15 H1          10.0100    -2.7460   -11.1470 h4         1 T9Y       0.063100
     16 H2          10.9910    -0.3980   -14.2680 hn         1 T9Y       0.393000
     17 H3          10.2030     1.0060    -7.5290 h1         1 T9Y       0.061700
     18 H4          10.3780     2.6030    -8.2520 h1         1 T9Y       0.061700
     19 H5           8.1920     2.4160    -7.1230 hc         1 T9Y       0.049700
     20 H6           7.9470     2.6140    -8.8570 hc         1 T9Y       0.049700
     21 H7           7.7480     1.0230    -8.1040 hc         1 T9Y       0.049700
@<TRIPOS>BOND
     1     1     8 2   
     2     1     9 1   
     3     1    15 1   
     4     2     3 1   
     5     2     4 1   
     6     2     9 2   
     7     3     5 1   
     8     3     6 1   
     9     3     7 1   
    10     4     8 1   
    11     4    16 1   
    12     9    10 1   
    13    10    11 2   
    14    10    12 1   
    15    12    13 1   
    16    13    14 1   
    17    13    17 1   
    18    13    18 1   
    19    14    19 1   
    20    14    20 1   
    21    14    21 1   
@<TRIPOS>SUBSTRUCTURE
     1 T9Y         1 TEMP              0 ****  ****    0 ROOT
