@<TRIPOS>MOLECULE
T9Y
   21    21     1     0     0
SMALL
No Charge or Current Charge


@<TRIPOS>ATOM
      1 C4          10.1520    -1.8330   -11.6770 cc         1 T9Y       0.289900
      2 C5          10.5910     0.2530   -12.3210 cd         1 T9Y      -0.215300
      3 C6          10.8350     1.7440   -12.4910 c3         1 T9Y       0.397300
      4 N1          10.6910    -0.6790   -13.3710 na         1 T9Y       0.035800
      5 F2          11.8590     2.1780   -11.7230 f          1 T9Y      -0.100333
      6 F           11.1460     2.0620   -13.7690 f          1 T9Y      -0.100333
      7 F1           9.7440     2.4740   -12.1650 f          1 T9Y      -0.100333
      8 N           10.4140    -1.9840   -12.9590 nd         1 T9Y      -0.496800
      9 C3          10.2430    -0.5100   -11.2300 cc         1 T9Y      -0.202600
     10 C2           9.9880    -0.1120    -9.8280 c          1 T9Y       0.643700
     11 O1           9.6860    -0.9230    -8.9630 o          1 T9Y      -0.483000
     12 O           10.1480     1.2270    -9.5760 os         1 T9Y      -0.445100
     13 C1           9.8490     1.7460    -8.2650 c3         1 T9Y       0.171600
     14 C            8.3190     1.8520    -8.1080 c3         1 T9Y      -0.123100
     15 H1           9.8980    -2.7070   -11.0910 h4         1 T9Y       0.063100
     16 H2          10.9340    -0.4710   -14.3400 hn         1 T9Y       0.393000
     17 H3          10.2760     1.1160    -7.4730 h1         1 T9Y       0.061700
     18 H4          10.2790     2.7510    -8.1580 h1         1 T9Y       0.061700
     19 H5           8.0710     2.3270    -7.1520 hc         1 T9Y       0.049700
     20 H6           7.8900     2.4610    -8.9130 hc         1 T9Y       0.049700
     21 H7           7.8450     0.8630    -8.1270 hc         1 T9Y       0.049700
@<TRIPOS>BOND
     1     1     8 2   
     2     1     9 1   
     3     1    15 1   
     4     2     3 1   
     5     2     4 1   
     6     2     9 2   
     7     3     5 1   
     8     3     6 1   
     9     3     7 1   
    10     4     8 1   
    11     4    16 1   
    12     9    10 1   
    13    10    11 2   
    14    10    12 1   
    15    12    13 1   
    16    13    14 1   
    17    13    17 1   
    18    13    18 1   
    19    14    19 1   
    20    14    20 1   
    21    14    21 1   
@<TRIPOS>SUBSTRUCTURE
     1 T9Y         1 TEMP              0 ****  ****    0 ROOT
