@<TRIPOS>MOLECULE
T9Z
   36    38     1     0     0
SMALL
bcc


@<TRIPOS>ATOM
      1 C10         -0.6850    -9.1020     8.4000 ca         1 T9Z       0.190100
      2 C15         -0.7530    -4.3240     5.7380 c6         1 T9Z       0.102900
      3 C17         -1.1910    -6.1980     4.4530 c6         1 T9Z       0.102900
      4 C01         -1.6900   -13.1900     8.8130 ca         1 T9Z      -0.086000
      5 C02         -2.4700   -12.2100     9.4590 ca         1 T9Z      -0.099000
      6 C03         -2.1590   -10.8840     9.3370 ca         1 T9Z      -0.126000
      7 C04         -1.0500   -10.4680     8.5600 ca         1 T9Z      -0.103000
      8 C05         -0.2580   -11.4560     7.9160 ca         1 T9Z       0.012000
      9 C06         -0.6100   -12.8180     8.0620 ca         1 T9Z      -0.118000
     10 C07          0.8660   -11.0710     7.1510 ca         1 T9Z      -0.119000
     11 C08          1.1900    -9.7510     7.0310 ca         1 T9Z      -0.092000
     12 C09          0.4190    -8.7480     7.6530 ca         1 T9Z      -0.224300
     13 C12          0.8040    -7.3090     7.5170 c3         1 T9Z       0.209100
     14 C14          0.2080    -5.0830     6.6310 c6         1 T9Z       0.083300
     15 C18         -0.2590    -7.0660     5.2750 c6         1 T9Z       0.083300
     16 N13         -0.1580    -6.5300     6.6650 nx         1 T9Z      -0.695400
     17 O11         -1.3750    -8.0900     8.9550 oh         1 T9Z      -0.536100
     18 O16         -0.7760    -4.8560     4.4380 os         1 T9Z      -0.354600
     19 H2          -1.7570    -4.3290     6.1840 h1         1 T9Z       0.088200
     20 H3          -2.2170    -6.2890     4.8380 h1         1 T9Z       0.088200
     21 H4          -1.1890    -6.5650     3.4270 h1         1 T9Z       0.088200
     22 H5          -1.9470   -14.2360     8.9180 ha         1 T9Z       0.155000
     23 H6          -3.3190   -12.5090    10.0590 ha         1 T9Z       0.152000
     24 H7          -2.7820   -10.1690     9.8610 ha         1 T9Z       0.128000
     25 H8          -0.0030   -13.5660     7.5660 ha         1 T9Z       0.151000
     26 H9           1.4640   -11.8320     6.6670 ha         1 T9Z       0.158000
     27 H10          2.0540    -9.4550     6.4480 ha         1 T9Z       0.140000
     28 H11          1.7810    -7.2090     7.0460 hx         1 T9Z       0.096700
     29 H12          0.8390    -6.7960     8.4780 hx         1 T9Z       0.096700
     30 H13          1.2320    -5.0220     6.2610 hx         1 T9Z       0.107200
     31 H14          0.1740    -4.7050     7.6520 hx         1 T9Z       0.107200
     32 H15         -0.6330    -8.0870     5.3260 hx         1 T9Z       0.107200
     33 H16          0.7510    -7.0760     4.8640 hx         1 T9Z       0.107200
     34 H17         -1.0810    -6.6040     7.1050 hn         1 T9Z       0.449800
     35 H18         -2.2100    -8.3700     9.3460 ho         1 T9Z       0.460000
     36 H1          -0.4220    -3.2870     5.6750 h1         1 T9Z       0.088200
@<TRIPOS>BOND
     1     1     7 ar  
     2     1    12 ar  
     3     1    17 1   
     4     2    14 1   
     5     2    18 1   
     6     2    19 1   
     7     2    36 1   
     8     3    15 1   
     9     3    18 1   
    10     3    20 1   
    11     3    21 1   
    12     4     5 ar  
    13     4     9 ar  
    14     4    22 1   
    15     5     6 ar  
    16     5    23 1   
    17     6     7 ar  
    18     6    24 1   
    19     7     8 ar  
    20     8     9 ar  
    21     8    10 ar  
    22     9    25 1   
    23    10    11 ar  
    24    10    26 1   
    25    11    12 ar  
    26    11    27 1   
    27    12    13 1   
    28    13    16 1   
    29    13    28 1   
    30    13    29 1   
    31    14    16 1   
    32    14    30 1   
    33    14    31 1   
    34    15    16 1   
    35    15    32 1   
    36    15    33 1   
    37    16    34 1   
    38    17    35 1   
@<TRIPOS>SUBSTRUCTURE
     1 T9Z         1 TEMP              0 ****  ****    0 ROOT
