@<TRIPOS>MOLECULE
T9Z
   36    38     1     0     0
SMALL
No Charge or Current Charge


@<TRIPOS>ATOM
      1 C10         -0.6460    -9.0970     8.2110 ca         1 T9Z       0.190100
      2 C15         -0.9300    -4.2760     5.9800 c6         1 T9Z       0.126100
      3 C17         -1.3880    -6.1410     4.4980 c6         1 T9Z       0.126100
      4 C01         -1.7790   -13.1360     8.8920 ca         1 T9Z      -0.068000
      5 C02         -2.6350   -12.0990     9.2930 ca         1 T9Z      -0.081000
      6 C03         -2.2740   -10.7580     9.0740 ca         1 T9Z      -0.108000
      7 C04         -1.0440   -10.4380     8.4480 ca         1 T9Z      -0.103000
      8 C05         -0.1900   -11.4930     8.0430 ca         1 T9Z       0.012000
      9 C06         -0.5590   -12.8330     8.2680 ca         1 T9Z      -0.100000
     10 C07          1.0320   -11.2090     7.4100 ca         1 T9Z      -0.101000
     11 C08          1.4160    -9.8810     7.1740 ca         1 T9Z      -0.074000
     12 C09          0.5830    -8.8220     7.5730 ca         1 T9Z      -0.224300
     13 C12          1.0340    -7.3960     7.3060 c3         1 T9Z       0.180900
     14 C14          0.1940    -5.0550     6.7100 c6         1 T9Z       0.055100
     15 C18         -0.2850    -7.0090     5.1550 c6         1 T9Z       0.055100
     16 N13         -0.0370    -6.5780     6.6160 nx         1 T9Z      -0.666000
     17 O11         -1.4460    -8.0500     8.5850 oh         1 T9Z      -0.575100
     18 O16         -1.0480    -4.7390     4.6140 os         1 T9Z      -0.401000
     19 H2          -1.8890    -4.4150     6.5000 h1         1 T9Z       0.088200
     20 H3          -2.3570    -6.3260     4.9840 h1         1 T9Z       0.088200
     21 H4          -1.4850    -6.4020     3.4350 h1         1 T9Z       0.088200
     22 H5          -2.0610   -14.1720     9.0640 ha         1 T9Z       0.137000
     23 H6          -3.5820   -12.3340     9.7740 ha         1 T9Z       0.134000
     24 H7          -2.9680    -9.9850     9.3930 ha         1 T9Z       0.110000
     25 H8           0.0980   -13.6420     7.9570 ha         1 T9Z       0.133000
     26 H9           1.6880   -12.0190     7.0970 ha         1 T9Z       0.140000
     27 H10          2.3660    -9.6780     6.6820 ha         1 T9Z       0.122000
     28 H11          1.9350    -7.3790     6.6880 hx         1 T9Z       0.096700
     29 H12          1.2730    -6.9100     8.2560 hx         1 T9Z       0.096700
     30 H13          1.1640    -4.8390     6.2500 hx         1 T9Z       0.107200
     31 H14          0.2500    -4.7730     7.7670 hx         1 T9Z       0.107200
     32 H15         -0.5560    -8.0710     5.1480 hx         1 T9Z       0.107200
     33 H16          0.6590    -6.8970     4.6120 hx         1 T9Z       0.107200
     34 H17         -0.8990    -6.8100     7.1700 hn         1 T9Z       0.505000
     35 H18         -2.1500    -8.4000     9.1710 ho         1 T9Z       0.499000
     36 H1          -0.6980    -3.2010     5.9780 h1         1 T9Z       0.088200
@<TRIPOS>BOND
     1     1     7 ar  
     2     1    12 ar  
     3     1    17 1   
     4     2    14 1   
     5     2    18 1   
     6     2    19 1   
     7     2    36 1   
     8     3    15 1   
     9     3    18 1   
    10     3    20 1   
    11     3    21 1   
    12     4     5 ar  
    13     4     9 ar  
    14     4    22 1   
    15     5     6 ar  
    16     5    23 1   
    17     6     7 ar  
    18     6    24 1   
    19     7     8 ar  
    20     8     9 ar  
    21     8    10 ar  
    22     9    25 1   
    23    10    11 ar  
    24    10    26 1   
    25    11    12 ar  
    26    11    27 1   
    27    12    13 1   
    28    13    16 1   
    29    13    28 1   
    30    13    29 1   
    31    14    16 1   
    32    14    30 1   
    33    14    31 1   
    34    15    16 1   
    35    15    32 1   
    36    15    33 1   
    37    16    34 1   
    38    17    35 1   
@<TRIPOS>SUBSTRUCTURE
     1 T9Z         1 TEMP              0 ****  ****    0 ROOT
