@<TRIPOS>MOLECULE
TA1
  113   119     1     0     0
SMALL
No Charge or Current Charge


@<TRIPOS>ATOM
      1 O01         -1.6310     2.9480     1.7800 oh         1 TA1      -0.660000
      2 C01         -0.4510     2.1420     1.7680 c6         1 TA1       0.199000
      3 C02         -0.9600     0.6990     2.3550 c3         1 TA1       0.164300
      4 O02         -2.3400     0.5240     1.9180 os         1 TA1      -0.460100
      5 C03         -3.3090     0.1210     2.8070 c          1 TA1       0.618700
      6 O03         -3.1100    -0.0590     3.9990 o          1 TA1      -0.477000
      7 C04         -4.6490    -0.1200     2.1570 ca         1 TA1      -0.148600
      8 C05         -5.7000    -0.6990     2.9020 ca         1 TA1      -0.057000
      9 C06         -6.9490    -0.9430     2.3050 ca         1 TA1      -0.125500
     10 C07         -7.1630    -0.6110     0.9570 ca         1 TA1      -0.083000
     11 C08         -6.1270    -0.0320     0.2070 ca         1 TA1      -0.125500
     12 C09         -4.8770     0.2140     0.8010 ca         1 TA1      -0.057000
     13 C10         -0.0940    -0.6340     2.1120 c6         1 TA1      -0.032700
     14 C11         -0.8170    -1.6830     1.1460 cy         1 TA1       0.160000
     15 O04         -1.1640    -0.9890    -0.0840 os         1 TA1      -0.447100
     16 C12         -1.9330    -1.5930    -1.0560 c          1 TA1       0.601100
     17 O05         -2.2370    -2.7740    -1.1120 o          1 TA1      -0.472000
     18 C13         -2.2480    -0.6160    -2.1790 c3         1 TA1      -0.163100
     19 C14         -1.9510    -2.5240     1.8270 cy         1 TA1       0.124600
     20 O06         -1.2330    -3.7770     1.5000 oq         1 TA1      -0.448000
     21 C15         -0.0680    -3.0490     0.9450 cy         1 TA1       0.123300
     22 C16          1.2230    -3.1990     1.7800 c6         1 TA1      -0.125400
     23 C17          1.0220    -2.7800     3.2450 c6         1 TA1       0.188300
     24 O07         -0.0120    -3.5830     3.8160 oh         1 TA1      -0.672000
     25 C18          0.7630    -1.2130     3.3800 c6         1 TA1      -0.140000
     26 C19          0.0350    -0.9930     4.7610 c3         1 TA1      -0.091100
     27 C20          2.2000    -0.5130     3.5350 c          1 TA1       0.559100
     28 O08          3.2110    -1.2070     3.5660 o          1 TA1      -0.506100
     29 C21          2.4140     1.0350     3.7380 c3         1 TA1       0.132500
     30 O09          1.9630     1.4840     5.0330 os         1 TA1      -0.432100
     31 C22          2.6120     1.0660     6.1650 c          1 TA1       0.590100
     32 O10          3.6000     0.3490     6.1830 o          1 TA1      -0.470000
     33 C23          1.9550     1.6290     7.4150 c3         1 TA1      -0.155100
     34 C24          1.8880     1.8680     2.5480 c2         1 TA1      -0.105400
     35 C25          2.3530     1.5680     1.3000 c2         1 TA1      -0.118400
     36 C26          1.5550     1.9210     0.0250 c6         1 TA1       0.212500
     37 O11          1.7150     0.8830    -0.9680 os         1 TA1      -0.446100
     38 C27          2.5150     1.0680    -2.0700 c          1 TA1       0.556100
     39 O12          3.1530     2.0900    -2.2970 o          1 TA1      -0.477000
     40 C28          2.7260    -0.2520    -2.8600 c3         1 TA1       0.111300
     41 O13          3.8970    -0.1820    -3.7240 oh         1 TA1      -0.634000
     42 C29          1.4540    -0.6480    -3.6640 c3         1 TA1       0.175000
     43 N01          1.2040     0.2250    -4.8200 ns         1 TA1      -0.510900
     44 C30          0.5240     1.4200    -4.7840 c          1 TA1       0.616700
     45 O14          0.0510     1.8470    -3.7420 o          1 TA1      -0.612100
     46 C31          0.3930     2.1690    -6.0950 ca         1 TA1      -0.165600
     47 C32         -0.2930     3.4060    -6.1200 ca         1 TA1      -0.073500
     48 C33         -0.4330     4.1280    -7.3170 ca         1 TA1      -0.117500
     49 C34          0.1090     3.6270    -8.5100 ca         1 TA1      -0.082000
     50 C35          0.7930     2.4020    -8.5040 ca         1 TA1      -0.117500
     51 C36          0.9360     1.6750    -7.3080 ca         1 TA1      -0.073500
     52 C37          1.4890    -2.1170    -4.0960 ca         1 TA1      -0.093300
     53 C38          0.7310    -3.0730    -3.3910 ca         1 TA1      -0.092500
     54 C39          0.7510    -4.4260    -3.7710 ca         1 TA1      -0.107500
     55 C40          1.5330    -4.8370    -4.8620 ca         1 TA1      -0.102000
     56 C41          2.2980    -3.8950    -5.5690 ca         1 TA1      -0.107500
     57 C42          2.2780    -2.5420    -5.1880 ca         1 TA1      -0.092500
     58 C43          0.0300     2.1430     0.2620 c6         1 TA1      -0.123400
     59 C44          3.6010     0.7230     1.0080 c3         1 TA1      -0.057900
     60 C45          0.6650     2.8340     2.6630 c6         1 TA1       0.016200
     61 C46          1.1070     4.2600     2.1520 c3         1 TA1      -0.080100
     62 C47          0.1060     3.1930     4.0980 c3         1 TA1      -0.080100
     63 H011        -2.3400     2.2650     1.7420 ho         1 TA1       0.458000
     64 H021        -0.9840     0.8620     3.4270 h1         1 TA1       0.088700
     65 H051        -5.5520    -0.9660     3.9470 ha         1 TA1       0.133500
     66 H061        -7.7510    -1.3910     2.8870 ha         1 TA1       0.121500
     67 HC71        -8.1310    -0.8000     0.4960 ha         1 TA1       0.114000
     68 H081        -6.2930     0.2280    -0.8360 ha         1 TA1       0.121500
     69 H091        -4.0940     0.6700     0.2010 ha         1 TA1       0.133500
     70 H101         0.6950    -0.3020     1.4340 hc         1 TA1       0.077700
     71 H131        -2.4580    -1.1270    -3.1250 hc         1 TA1       0.074700
     72 H132        -3.1180    -0.0260    -1.8770 hc         1 TA1       0.074700
     73 H133        -1.4570     0.1340    -2.2650 hc         1 TA1       0.074700
     74 H141        -2.9310    -2.4750     1.3400 h1         1 TA1       0.075700
     75 H142        -2.0560    -2.3780     2.9060 h1         1 TA1       0.075700
     76 H151         0.0930    -3.3160    -0.1050 h1         1 TA1       0.080700
     77 H161         2.0240    -2.5990     1.3260 hc         1 TA1       0.075700
     78 H162         1.5660    -4.2410     1.7340 hc         1 TA1       0.075700
     79 H171         1.9340    -3.0580     3.7930 h1         1 TA1       0.087700
     80 H071        -0.5640    -3.8700     3.0450 ho         1 TA1       0.471000
     81 H191        -0.0450     0.0520     5.0650 hc         1 TA1       0.053033
     82 H192        -0.9830    -1.3960     4.7600 hc         1 TA1       0.053033
     83 H193         0.5760    -1.4970     5.5720 hc         1 TA1       0.053033
     84 H211         3.5010     1.1780     3.7310 h1         1 TA1       0.082700
     85 H231         2.4630     1.3200     8.3350 hc         1 TA1       0.073367
     86 H232         1.9020     2.7190     7.3240 hc         1 TA1       0.073367
     87 H233         0.8970     1.3450     7.4160 hc         1 TA1       0.073367
     88 H261         1.9620     2.8590    -0.3780 h1         1 TA1       0.080700
     89 H281         2.8790    -1.0270    -2.0990 h1         1 TA1       0.072700
     90 HO11         4.0560     0.7720    -3.9090 ho         1 TA1       0.465000
     91 H291         0.6020    -0.5390    -2.9800 h1         1 TA1       0.092700
     92 HN01         1.5580    -0.0710    -5.7180 hn         1 TA1       0.336500
     93 H321        -0.7220     3.8140    -5.2060 ha         1 TA1       0.127000
     94 H331        -0.9640     5.0780    -7.3190 ha         1 TA1       0.121500
     95 H341        -0.0000     4.1870    -9.4370 ha         1 TA1       0.119000
     96 H351         1.2130     2.0120    -9.4280 ha         1 TA1       0.121500
     97 H361         1.4730     0.7300    -7.3480 ha         1 TA1       0.127000
     98 H381         0.1270    -2.7720    -2.5410 ha         1 TA1       0.109000
     99 H391         0.1610    -5.1540    -3.2190 ha         1 TA1       0.114500
    100 H401         1.5500    -5.8850    -5.1570 ha         1 TA1       0.115000
    101 H411         2.9090    -4.2130    -6.4110 ha         1 TA1       0.114500
    102 H421         2.8850    -1.8280    -5.7410 ha         1 TA1       0.109000
    103 H431        -0.5550     1.4090    -0.2990 hc         1 TA1       0.074700
    104 H432        -0.2280     3.1050    -0.2010 hc         1 TA1       0.074700
    105 H441         4.1990     1.1810     0.2110 hc         1 TA1       0.054033
    106 H442         4.2840     0.6300     1.8570 hc         1 TA1       0.054033
    107 H443         3.3370    -0.2910     0.6850 hc         1 TA1       0.054033
    108 H461         1.5440     4.2750     1.1520 hc         1 TA1       0.043033
    109 H462         0.2620     4.9600     2.1300 hc         1 TA1       0.043033
    110 H463         1.8670     4.6930     2.8140 hc         1 TA1       0.043033
    111 H471         0.8670     3.6820     4.7190 hc         1 TA1       0.043033
    112 H472        -0.7240     3.9070     4.0360 hc         1 TA1       0.043033
    113 H473        -0.2820     2.3420     4.6610 hc         1 TA1       0.043033
@<TRIPOS>BOND
     1     1     2 1   
     2     1    63 1   
     3     2     3 1   
     4     2    58 1   
     5     2    60 1   
     6     3     4 1   
     7     3    13 1   
     8     3    64 1   
     9     4     5 1   
    10     5     6 2   
    11     5     7 1   
    12     7     8 ar  
    13     7    12 ar  
    14     8     9 ar  
    15     8    65 1   
    16     9    10 ar  
    17     9    66 1   
    18    10    11 ar  
    19    10    67 1   
    20    11    12 ar  
    21    11    68 1   
    22    12    69 1   
    23    13    14 1   
    24    13    25 1   
    25    13    70 1   
    26    14    15 1   
    27    14    19 1   
    28    14    21 1   
    29    15    16 1   
    30    16    17 2   
    31    16    18 1   
    32    18    71 1   
    33    18    72 1   
    34    18    73 1   
    35    19    20 1   
    36    19    74 1   
    37    19    75 1   
    38    20    21 1   
    39    21    22 1   
    40    21    76 1   
    41    22    23 1   
    42    22    77 1   
    43    22    78 1   
    44    23    24 1   
    45    23    25 1   
    46    23    79 1   
    47    24    80 1   
    48    25    26 1   
    49    25    27 1   
    50    26    81 1   
    51    26    82 1   
    52    26    83 1   
    53    27    28 2   
    54    27    29 1   
    55    29    30 1   
    56    29    34 1   
    57    29    84 1   
    58    30    31 1   
    59    31    32 2   
    60    31    33 1   
    61    33    85 1   
    62    33    86 1   
    63    33    87 1   
    64    34    35 2   
    65    34    60 1   
    66    35    36 1   
    67    35    59 1   
    68    36    37 1   
    69    36    58 1   
    70    36    88 1   
    71    37    38 1   
    72    38    39 2   
    73    38    40 1   
    74    40    41 1   
    75    40    42 1   
    76    40    89 1   
    77    41    90 1   
    78    42    43 1   
    79    42    52 1   
    80    42    91 1   
    81    43    44 1   
    82    43    92 1   
    83    44    45 2   
    84    44    46 1   
    85    46    47 ar  
    86    46    51 ar  
    87    47    48 ar  
    88    47    93 1   
    89    48    49 ar  
    90    48    94 1   
    91    49    50 ar  
    92    49    95 1   
    93    50    51 ar  
    94    50    96 1   
    95    51    97 1   
    96    52    53 ar  
    97    52    57 ar  
    98    53    54 ar  
    99    53    98 1   
   100    54    55 ar  
   101    54    99 1   
   102    55    56 ar  
   103    55   100 1   
   104    56    57 ar  
   105    56   101 1   
   106    57   102 1   
   107    58   103 1   
   108    58   104 1   
   109    59   105 1   
   110    59   106 1   
   111    59   107 1   
   112    60    61 1   
   113    60    62 1   
   114    61   108 1   
   115    61   109 1   
   116    61   110 1   
   117    62   111 1   
   118    62   112 1   
   119    62   113 1   
@<TRIPOS>SUBSTRUCTURE
     1 TA1         1 TEMP              0 ****  ****    0 ROOT
