@<TRIPOS>MOLECULE
TA1
  113   119     1     0     0
SMALL
abcg2


@<TRIPOS>ATOM
      1 O01         -1.1430     2.4660     0.6340 oh         1 TA1      -0.660000
      2 C01         -0.0870     1.5910     0.9710 c6         1 TA1       0.199000
      3 C02         -0.7050     0.5490     1.9880 c3         1 TA1       0.164300
      4 O02         -1.9040     0.1300     1.3330 os         1 TA1      -0.460100
      5 C03         -3.0780     0.6610     1.6750 c          1 TA1       0.618700
      6 O03         -3.2990     1.1960     2.7320 o          1 TA1      -0.477000
      7 C04         -4.0880     0.4730     0.6060 ca         1 TA1      -0.148600
      8 C05         -5.4310     0.6820     0.9130 ca         1 TA1      -0.057000
      9 C06         -6.3980     0.5410    -0.0690 ca         1 TA1      -0.125500
     10 C07         -6.0290     0.2090    -1.3670 ca         1 TA1      -0.083000
     11 C08         -4.6910     0.0130    -1.6810 ca         1 TA1      -0.125500
     12 C09         -3.7210     0.1390    -0.6980 ca         1 TA1      -0.057000
     13 C10          0.1100    -0.7290     2.4080 c6         1 TA1      -0.032700
     14 C11         -0.7350    -2.0040     2.1590 cy         1 TA1       0.160000
     15 O04         -0.7700    -2.1350     0.7410 os         1 TA1      -0.447100
     16 C12         -1.4730    -3.0810     0.1100 c          1 TA1       0.601100
     17 O05         -2.2220    -3.8480     0.6560 o          1 TA1      -0.472000
     18 C13         -1.1780    -3.0770    -1.3570 c3         1 TA1      -0.163100
     19 C14         -2.0340    -2.1550     2.9630 cy         1 TA1       0.124600
     20 O06         -1.5440    -3.3480     3.5950 oq         1 TA1      -0.448000
     21 C15         -0.3000    -3.3020     2.8590 cy         1 TA1       0.123300
     22 C16          0.9210    -3.2160     3.7280 c6         1 TA1      -0.125400
     23 C17          0.8580    -2.0170     4.6500 c6         1 TA1       0.188300
     24 O07         -0.1740    -2.1800     5.5950 oh         1 TA1      -0.672000
     25 C18          0.7780    -0.6390     3.8700 c6         1 TA1      -0.140000
     26 C19          0.0860     0.3320     4.8300 c3         1 TA1      -0.091100
     27 C20          2.2530    -0.2500     3.6080 c          1 TA1       0.559100
     28 O08          3.0920    -1.1150     3.5320 o          1 TA1      -0.506100
     29 C21          2.7420     1.1790     3.2580 c3         1 TA1       0.132500
     30 O09          2.4560     2.1860     4.2060 os         1 TA1      -0.432100
     31 C22          2.8590     1.9950     5.4650 c          1 TA1       0.590100
     32 O10          3.3890     0.9770     5.8300 o          1 TA1      -0.470000
     33 C23          2.5400     3.1790     6.3210 c3         1 TA1      -0.155100
     34 C24          2.1900     1.5160     1.8880 c2         1 TA1      -0.105400
     35 C25          2.6960     0.8240     0.8470 c2         1 TA1      -0.118400
     36 C26          1.9690     0.8940    -0.4720 c6         1 TA1       0.212500
     37 O11          2.2540    -0.2420    -1.3080 os         1 TA1      -0.446100
     38 C27          2.9310    -0.0450    -2.4340 c          1 TA1       0.556100
     39 O12          3.6190     0.9140    -2.6610 o          1 TA1      -0.477000
     40 C28          2.6930    -1.1680    -3.4400 c3         1 TA1       0.111300
     41 O13          3.3920    -0.9320    -4.6190 oh         1 TA1      -0.634000
     42 C29          1.1910    -1.2020    -3.7770 c3         1 TA1       0.175000
     43 N01          0.7420     0.1440    -4.0470 ns         1 TA1      -0.510900
     44 C30         -0.4980     0.5650    -3.7180 c          1 TA1       0.616700
     45 O14         -1.3620    -0.1990    -3.3120 o          1 TA1      -0.612100
     46 C31         -0.7540     2.0310    -3.8160 ca         1 TA1      -0.165600
     47 C32         -2.0750     2.4640    -3.9080 ca         1 TA1      -0.073500
     48 C33         -2.3660     3.8180    -3.9390 ca         1 TA1      -0.117500
     49 C34         -1.3410     4.7530    -3.8580 ca         1 TA1      -0.082000
     50 C35         -0.0240     4.3290    -3.7470 ca         1 TA1      -0.117500
     51 C36          0.2710     2.9730    -3.7290 ca         1 TA1      -0.073500
     52 C37          0.9020    -2.1890    -4.8860 ca         1 TA1      -0.093300
     53 C38          0.9260    -3.5510    -4.5960 ca         1 TA1      -0.092500
     54 C39          0.6760    -4.4910    -5.5850 ca         1 TA1      -0.107500
     55 C40          0.3970    -4.0780    -6.8820 ca         1 TA1      -0.102000
     56 C41          0.3680    -2.7220    -7.1760 ca         1 TA1      -0.107500
     57 C42          0.6210    -1.7830    -6.1840 ca         1 TA1      -0.092500
     58 C43          0.4480     0.8950    -0.2960 c6         1 TA1      -0.123400
     59 C44          3.9280    -0.0290     0.8520 c3         1 TA1      -0.057900
     60 C45          1.0140     2.4720     1.6210 c6         1 TA1       0.016200
     61 C46          1.4770     3.5900     0.6530 c3         1 TA1      -0.080100
     62 C47          0.4290     3.2990     2.7800 c3         1 TA1      -0.080100
     63 H011        -1.5320     2.2200    -0.2090 ho         1 TA1       0.458000
     64 H021        -1.0010     1.0930     2.8820 h1         1 TA1       0.088700
     65 H051        -5.7210     0.9480     1.9200 ha         1 TA1       0.133500
     66 H061        -7.4400     0.6940     0.1770 ha         1 TA1       0.121500
     67 HC71        -6.7860     0.1070    -2.1350 ha         1 TA1       0.114000
     68 H081        -4.3940    -0.2360    -2.6910 ha         1 TA1       0.121500
     69 H091        -2.6860    -0.0220    -0.9660 ha         1 TA1       0.133500
     70 H101         0.9350    -0.8420     1.7020 hc         1 TA1       0.077700
     71 H131        -1.8320    -3.7710    -1.8760 hc         1 TA1       0.074700
     72 H132        -1.2900    -2.0840    -1.7900 hc         1 TA1       0.074700
     73 H133        -0.1440    -3.3910    -1.5140 hc         1 TA1       0.074700
     74 H141        -2.9570    -2.3140     2.4090 h1         1 TA1       0.075700
     75 H142        -2.2050    -1.3620     3.6970 h1         1 TA1       0.075700
     76 H151        -0.2120    -4.1560     2.1850 h1         1 TA1       0.080700
     77 H161         1.7940    -3.1640     3.0770 hc         1 TA1       0.075700
     78 H162         1.0240    -4.1330     4.3150 hc         1 TA1       0.075700
     79 H171         1.7750    -1.9720     5.2400 h1         1 TA1       0.087700
     80 H071        -0.8990    -2.6630     5.1710 ho         1 TA1       0.471000
     81 H191         0.1720     1.3710     4.5460 hc         1 TA1       0.053033
     82 H192        -0.9770     0.1160     4.9250 hc         1 TA1       0.053033
     83 H193         0.5130     0.2440     5.8290 hc         1 TA1       0.053033
     84 H211         3.8280     1.0800     3.1970 h1         1 TA1       0.082700
     85 H231         2.8800     3.0150     7.3390 hc         1 TA1       0.073367
     86 H232         3.0110     4.0770     5.9220 hc         1 TA1       0.073367
     87 H233         1.4630     3.3570     6.3280 hc         1 TA1       0.073367
     88 H261         2.3060     1.7750    -1.0160 h1         1 TA1       0.080700
     89 H281         2.9620    -2.1250    -2.9720 h1         1 TA1       0.072700
     90 HO11         4.3370    -0.8920    -4.4360 ho         1 TA1       0.465000
     91 H291         0.6700    -1.5390    -2.8810 h1         1 TA1       0.092700
     92 HN01         1.3460     0.7530    -4.5800 hn         1 TA1       0.336500
     93 H321        -2.8760     1.7380    -3.9570 ha         1 TA1       0.127000
     94 H331        -3.3940     4.1450    -4.0230 ha         1 TA1       0.121500
     95 H341        -1.5680     5.8110    -3.8740 ha         1 TA1       0.119000
     96 H351         0.7760     5.0520    -3.6680 ha         1 TA1       0.121500
     97 H361         1.3040     2.6680    -3.6180 ha         1 TA1       0.127000
     98 H381         1.1410    -3.8850    -3.5870 ha         1 TA1       0.109000
     99 H391         0.6950    -5.5460    -5.3420 ha         1 TA1       0.114500
    100 H401         0.1980    -4.8080    -7.6550 ha         1 TA1       0.115000
    101 H411         0.1470    -2.3910    -8.1820 ha         1 TA1       0.114500
    102 H421         0.5840    -0.7300    -6.4310 ha         1 TA1       0.109000
    103 H431         0.1190    -0.1430    -0.3280 hc         1 TA1       0.074700
    104 H432         0.0170     1.3760    -1.1770 hc         1 TA1       0.074700
    105 H441         4.5110     0.1570    -0.0510 hc         1 TA1       0.054033
    106 H442         4.5830     0.1650     1.6960 hc         1 TA1       0.054033
    107 H443         3.6940    -1.0950     0.8630 hc         1 TA1       0.054033
    108 H461         1.6940     3.2830    -0.3640 hc         1 TA1       0.043033
    109 H462         0.7180     4.3670     0.5790 hc         1 TA1       0.043033
    110 H463         2.3810     4.0510     1.0500 hc         1 TA1       0.043033
    111 H471         1.1610     4.0100     3.1560 hc         1 TA1       0.043033
    112 H472        -0.4050     3.8780     2.3890 hc         1 TA1       0.043033
    113 H473         0.0470     2.7450     3.6270 hc         1 TA1       0.043033
@<TRIPOS>BOND
     1     1     2 1   
     2     1    63 1   
     3     2     3 1   
     4     2    58 1   
     5     2    60 1   
     6     3     4 1   
     7     3    13 1   
     8     3    64 1   
     9     4     5 1   
    10     5     6 2   
    11     5     7 1   
    12     7     8 ar  
    13     7    12 ar  
    14     8     9 ar  
    15     8    65 1   
    16     9    10 ar  
    17     9    66 1   
    18    10    11 ar  
    19    10    67 1   
    20    11    12 ar  
    21    11    68 1   
    22    12    69 1   
    23    13    14 1   
    24    13    25 1   
    25    13    70 1   
    26    14    15 1   
    27    14    19 1   
    28    14    21 1   
    29    15    16 1   
    30    16    17 2   
    31    16    18 1   
    32    18    71 1   
    33    18    72 1   
    34    18    73 1   
    35    19    20 1   
    36    19    74 1   
    37    19    75 1   
    38    20    21 1   
    39    21    22 1   
    40    21    76 1   
    41    22    23 1   
    42    22    77 1   
    43    22    78 1   
    44    23    24 1   
    45    23    25 1   
    46    23    79 1   
    47    24    80 1   
    48    25    26 1   
    49    25    27 1   
    50    26    81 1   
    51    26    82 1   
    52    26    83 1   
    53    27    28 2   
    54    27    29 1   
    55    29    30 1   
    56    29    34 1   
    57    29    84 1   
    58    30    31 1   
    59    31    32 2   
    60    31    33 1   
    61    33    85 1   
    62    33    86 1   
    63    33    87 1   
    64    34    35 2   
    65    34    60 1   
    66    35    36 1   
    67    35    59 1   
    68    36    37 1   
    69    36    58 1   
    70    36    88 1   
    71    37    38 1   
    72    38    39 2   
    73    38    40 1   
    74    40    41 1   
    75    40    42 1   
    76    40    89 1   
    77    41    90 1   
    78    42    43 1   
    79    42    52 1   
    80    42    91 1   
    81    43    44 1   
    82    43    92 1   
    83    44    45 2   
    84    44    46 1   
    85    46    47 ar  
    86    46    51 ar  
    87    47    48 ar  
    88    47    93 1   
    89    48    49 ar  
    90    48    94 1   
    91    49    50 ar  
    92    49    95 1   
    93    50    51 ar  
    94    50    96 1   
    95    51    97 1   
    96    52    53 ar  
    97    52    57 ar  
    98    53    54 ar  
    99    53    98 1   
   100    54    55 ar  
   101    54    99 1   
   102    55    56 ar  
   103    55   100 1   
   104    56    57 ar  
   105    56   101 1   
   106    57   102 1   
   107    58   103 1   
   108    58   104 1   
   109    59   105 1   
   110    59   106 1   
   111    59   107 1   
   112    60    61 1   
   113    60    62 1   
   114    61   108 1   
   115    61   109 1   
   116    61   110 1   
   117    62   111 1   
   118    62   112 1   
   119    62   113 1   
@<TRIPOS>SUBSTRUCTURE
     1 TA1         1 TEMP              0 ****  ****    0 ROOT
