@<TRIPOS>MOLECULE
TA2
   25    25     1     0     0
SMALL
No Charge or Current Charge


@<TRIPOS>ATOM
      1 OH1          1.7370    -1.5780    -1.0590 oh         1 TA2      -0.646000
      2 COH          2.8200    -1.6190    -0.1070 c3         1 TA2       0.128300
      3 C            4.1210    -1.1530    -0.8130 c3         1 TA2       0.131600
      4 O            4.3370    -1.9240    -2.0080 oh         1 TA2      -0.647000
      5 CA           2.4740    -0.7500     1.1470 c3         1 TA2       0.173800
      6 N            1.1520    -1.1100     1.7100 n8         1 TA2      -0.977200
      7 CG           3.5540    -0.8020     2.2310 ca         1 TA2      -0.074300
      8 CD2          4.1710     0.3900     2.6660 ca         1 TA2      -0.101500
      9 CE2          5.1730     0.3550     3.6510 ca         1 TA2      -0.108500
     10 CZ           5.5680    -0.8700     4.2120 ca         1 TA2      -0.107000
     11 CE1          4.9580    -2.0620     3.7880 ca         1 TA2      -0.108500
     12 CD1          3.9550    -2.0300     2.8030 ca         1 TA2      -0.101500
     13 HOH1         2.1530    -1.8220    -1.9170 ho         1 TA2       0.440000
     14 HOH          2.9790    -2.6550     0.2230 h1         1 TA2       0.084700
     15 H1           4.9690    -1.2750    -0.1250 h1         1 TA2       0.025200
     16 H2           4.0420    -0.0850    -1.0580 h1         1 TA2       0.025200
     17 HO           5.1960    -1.6320    -2.3900 ho         1 TA2       0.443000
     18 HA           2.3940     0.2890     0.7960 h1         1 TA2       0.058700
     19 HN1          0.5200    -1.2340     0.9090 hn         1 TA2       0.400500
     20 HN2          1.2110    -2.0520     2.1070 hn         1 TA2       0.400500
     21 HD2          3.8750     1.3450     2.2400 ha         1 TA2       0.110000
     22 HE2          5.6440     1.2800     3.9800 ha         1 TA2       0.113500
     23 HZ           6.3440    -0.8970     4.9740 ha         1 TA2       0.113000
     24 HE1          5.2620    -3.0120     4.2220 ha         1 TA2       0.113500
     25 HD1          3.4910    -2.9610     2.4870 ha         1 TA2       0.110000
@<TRIPOS>BOND
     1     1     2 1   
     2     1    13 1   
     3     2     3 1   
     4     2     5 1   
     5     2    14 1   
     6     3     4 1   
     7     3    15 1   
     8     3    16 1   
     9     4    17 1   
    10     5     6 1   
    11     5     7 1   
    12     5    18 1   
    13     6    19 1   
    14     6    20 1   
    15     7     8 ar  
    16     7    12 ar  
    17     8     9 ar  
    18     8    21 1   
    19     9    10 ar  
    20     9    22 1   
    21    10    11 ar  
    22    10    23 1   
    23    11    12 ar  
    24    11    24 1   
    25    12    25 1   
@<TRIPOS>SUBSTRUCTURE
     1 TA2         1 TEMP              0 ****  ****    0 ROOT
