@<TRIPOS>MOLECULE
TA2
   25    25     1     0     0
SMALL
bcc


@<TRIPOS>ATOM
      1 OH1          1.8320    -1.7340    -1.0700 oh         1 TA2      -0.583800
      2 COH          2.8770    -1.6920    -0.1230 c3         1 TA2       0.105100
      3 C            4.1790    -1.2150    -0.7450 c3         1 TA2       0.108400
      4 O            4.5080    -2.0510    -1.8290 oh         1 TA2      -0.584800
      5 CA           2.4790    -0.8310     1.0940 c3         1 TA2       0.173800
      6 N            1.2030    -1.2090     1.6870 n8         1 TA2      -0.866800
      7 CG           3.5520    -0.8330     2.1570 ca         1 TA2      -0.074300
      8 CD2          4.1920     0.3460     2.5260 ca         1 TA2      -0.119500
      9 CE2          5.1780     0.3470     3.5050 ca         1 TA2      -0.126500
     10 CZ           5.5360    -0.8370     4.1330 ca         1 TA2      -0.125000
     11 CE1          4.9010    -2.0210     3.7770 ca         1 TA2      -0.126500
     12 CD1          3.9180    -2.0170     2.7970 ca         1 TA2      -0.119500
     13 HOH1         1.7440    -0.8610    -1.4700 ho         1 TA2       0.401000
     14 HOH          3.0060    -2.7280     0.2140 h1         1 TA2       0.084700
     15 H1           4.9640    -1.2220     0.0200 h1         1 TA2       0.025200
     16 H2           4.0600    -0.1670    -1.0630 h1         1 TA2       0.025200
     17 HO           5.3580    -1.7650    -2.1750 ho         1 TA2       0.404000
     18 HA           2.3680     0.2010     0.7360 h1         1 TA2       0.058700
     19 HN1          0.4930    -1.2170     0.9640 hn         1 TA2       0.345300
     20 HN2          1.2530    -2.1630     2.0270 hn         1 TA2       0.345300
     21 HD2          3.9180     1.2750     2.0420 ha         1 TA2       0.128000
     22 HE2          5.6650     1.2750     3.7760 ha         1 TA2       0.131500
     23 HZ           6.3040    -0.8400     4.8960 ha         1 TA2       0.131000
     24 HE1          5.1720    -2.9500     4.2620 ha         1 TA2       0.131500
     25 HD1          3.4380    -2.9530     2.5310 ha         1 TA2       0.128000
@<TRIPOS>BOND
     1     1     2 1   
     2     1    13 1   
     3     2     3 1   
     4     2     5 1   
     5     2    14 1   
     6     3     4 1   
     7     3    15 1   
     8     3    16 1   
     9     4    17 1   
    10     5     6 1   
    11     5     7 1   
    12     5    18 1   
    13     6    19 1   
    14     6    20 1   
    15     7     8 ar  
    16     7    12 ar  
    17     8     9 ar  
    18     8    21 1   
    19     9    10 ar  
    20     9    22 1   
    21    10    11 ar  
    22    10    23 1   
    23    11    12 ar  
    24    11    24 1   
    25    12    25 1   
@<TRIPOS>SUBSTRUCTURE
     1 TA2         1 TEMP              0 ****  ****    0 ROOT
