@<TRIPOS>MOLECULE
TA4
   30    30     1     0     0
SMALL
bcc


@<TRIPOS>ATOM
      1 O           -0.4710    -3.7080     4.4430 o          1 TA4      -0.804800
      2 C            0.3750    -4.0570     3.6070 c          1 TA4       0.933600
      3 CA           0.8490    -2.9780     2.5860 c3         1 TA4      -0.102000
      4 CB           2.3610    -2.9660     2.3840 c3         1 TA4      -0.068400
      5 CG           2.9110    -2.1800     1.1870 c3         1 TA4      -0.061700
      6 CD2          2.3460    -2.6780    -0.1400 c3         1 TA4      -0.083600
      7 CD1          2.7770    -0.6620     1.2960 c3         1 TA4      -0.083600
      8 NT1          0.3340    -1.6720     2.9560 na         1 TA4       0.185400
      9 CT5         -0.7330    -1.0320     2.4530 cc         1 TA4      -0.245600
     10 CT4         -0.8330     0.1140     3.2010 cd         1 TA4       0.183600
     11 NT3          0.1680     0.0890     4.1080 nd         1 TA4      -0.404000
     12 NT2          0.8560    -0.9940     3.9540 nc         1 TA4      -0.192800
     13 CT6         -1.7810     1.2630     3.0760 c3         1 TA4       0.137500
     14 N           -1.2340     2.4570     2.4420 n8         1 TA4      -0.890800
     15 OXT          0.8760    -5.1850     3.4490 o          1 TA4      -0.804800
     16 HA           0.3670    -3.2210     1.6340 h1         1 TA4       0.044700
     17 HB2          2.8460    -2.6210     3.3020 hc         1 TA4       0.067200
     18 HB3          2.6520    -4.0100     2.2600 hc         1 TA4       0.067200
     19 HG           3.9850    -2.3990     1.1780 hc         1 TA4       0.026700
     20 HD21         1.2850    -2.4410    -0.2480 hc         1 TA4       0.025867
     21 HD22         2.8620    -2.2110    -0.9800 hc         1 TA4       0.025867
     22 HD23         2.4550    -3.7600    -0.2420 hc         1 TA4       0.025867
     23 HD11         3.1390    -0.2940     2.2560 hc         1 TA4       0.025867
     24 HD12         1.7450    -0.3260     1.1770 hc         1 TA4       0.025867
     25 HD13         3.3630    -0.1780     0.5130 hc         1 TA4       0.025867
     26 HT5         -1.3130    -1.4190     1.6320 h4         1 TA4       0.169000
     27 HT61        -2.6570     0.9420     2.5100 h1         1 TA4       0.050700
     28 HT62        -2.1410     1.5420     4.0680 h1         1 TA4       0.050700
     29 H           -0.9070     2.2240     1.5130 hn         1 TA4       0.333800
     30 H2          -0.4110     2.7560     2.9530 hn         1 TA4       0.333800
@<TRIPOS>BOND
     1     1     2 1   
     2     2     3 1   
     3     2    15 1   
     4     3     4 1   
     5     3     8 1   
     6     3    16 1   
     7     4     5 1   
     8     4    17 1   
     9     4    18 1   
    10     5     6 1   
    11     5     7 1   
    12     5    19 1   
    13     6    20 1   
    14     6    21 1   
    15     6    22 1   
    16     7    23 1   
    17     7    24 1   
    18     7    25 1   
    19     8     9 1   
    20     8    12 1   
    21     9    10 2   
    22     9    26 1   
    23    10    11 1   
    24    10    13 1   
    25    11    12 2   
    26    13    14 1   
    27    13    27 1   
    28    13    28 1   
    29    14    29 1   
    30    14    30 1   
@<TRIPOS>SUBSTRUCTURE
     1 TA4         1 TEMP              0 ****  ****    0 ROOT
