@<TRIPOS>MOLECULE
TA4
   30    30     1     0     0
SMALL
No Charge or Current Charge


@<TRIPOS>ATOM
      1 O           -0.6810    -4.5930     3.5380 o          1 TA4      -0.804800
      2 C            0.4240    -4.0770     3.6670 c          1 TA4       0.933600
      3 CA           0.8420    -2.9990     2.6440 c3         1 TA4      -0.102000
      4 CB           2.3790    -2.9870     2.3470 c3         1 TA4      -0.068400
      5 CG           2.8610    -2.1830     1.1030 c3         1 TA4      -0.061700
      6 CD2          2.2090    -2.6610    -0.2150 c3         1 TA4      -0.083600
      7 CD1          2.7580    -0.6480     1.2630 c3         1 TA4      -0.083600
      8 NT1          0.2930    -1.7040     3.0660 na         1 TA4       0.185400
      9 CT5         -0.6840    -0.9760     2.4370 cc         1 TA4      -0.245600
     10 CT4         -0.8270     0.1250     3.2320 cd         1 TA4       0.183600
     11 NT3          0.0460     0.0320     4.2990 nd         1 TA4      -0.404000
     12 NT2          0.7250    -1.0800     4.2010 nc         1 TA4      -0.192800
     13 CT6         -1.7650     1.3030     3.0390 c3         1 TA4       0.137500
     14 N           -1.0810     2.4840     2.4530 n8         1 TA4      -0.890800
     15 OXT          1.2210    -4.4370     4.5270 o          1 TA4      -0.804800
     16 HA           0.3320    -3.2750     1.7140 h1         1 TA4       0.044700
     17 HB2          2.9190    -2.6330     3.2340 hc         1 TA4       0.067200
     18 HB3          2.6990    -4.0270     2.2050 hc         1 TA4       0.067200
     19 HG           3.9330    -2.4010     1.0100 hc         1 TA4       0.026700
     20 HD21         1.1430    -2.4040    -0.2470 hc         1 TA4       0.025867
     21 HD22         2.6950    -2.1880    -1.0770 hc         1 TA4       0.025867
     22 HD23         2.3070    -3.7480    -0.3260 hc         1 TA4       0.025867
     23 HD11         3.1710    -0.3270     2.2270 hc         1 TA4       0.025867
     24 HD12         1.7200    -0.3060     1.1970 hc         1 TA4       0.025867
     25 HD13         3.3230    -0.1440     0.4700 hc         1 TA4       0.025867
     26 HT5         -1.1710    -1.2800     1.5210 h4         1 TA4       0.169000
     27 HT61        -2.5890     1.0030     2.3760 h1         1 TA4       0.050700
     28 HT62        -2.1950     1.5860     4.0100 h1         1 TA4       0.050700
     29 H           -0.6510     2.2100     1.5640 hn         1 TA4       0.333800
     30 H2          -0.2860     2.7290     3.0520 hn         1 TA4       0.333800
@<TRIPOS>BOND
     1     1     2 1   
     2     2     3 1   
     3     2    15 1   
     4     3     4 1   
     5     3     8 1   
     6     3    16 1   
     7     4     5 1   
     8     4    17 1   
     9     4    18 1   
    10     5     6 1   
    11     5     7 1   
    12     5    19 1   
    13     6    20 1   
    14     6    21 1   
    15     6    22 1   
    16     7    23 1   
    17     7    24 1   
    18     7    25 1   
    19     8     9 1   
    20     8    12 1   
    21     9    10 2   
    22     9    26 1   
    23    10    11 1   
    24    10    13 1   
    25    11    12 2   
    26    13    14 1   
    27    13    27 1   
    28    13    28 1   
    29    14    29 1   
    30    14    30 1   
@<TRIPOS>SUBSTRUCTURE
     1 TA4         1 TEMP              0 ****  ****    0 ROOT
