@<TRIPOS>MOLECULE
TA5
   12    12     1     0     0
SMALL
No Charge or Current Charge


@<TRIPOS>ATOM
      1 N           -1.2620     1.4360     1.0400 nc         1 TA5      -0.500800
      2 CA          -0.1180     0.9110     0.6400 cd         1 TA5       0.202300
      3 CB          -0.0520    -0.3390    -0.2140 c3         1 TA5       0.143300
      4 OG           0.6400    -1.4160     0.4470 oh         1 TA5      -0.655000
      5 NT           0.5580     2.7020     1.8180 nc         1 TA5      -0.502800
      6 C            0.9710     1.6710     1.1070 cd         1 TA5       0.220900
      7 N2          -0.8200     2.5350     1.7640 na         1 TA5       0.111600
      8 H2          -1.4680     3.1810     2.2250 hn         1 TA5       0.400000
      9 HBC1        -1.0740    -0.6500    -0.4700 h1         1 TA5       0.037200
     10 HBC2         0.4550    -0.0860    -1.1540 h1         1 TA5       0.037200
     11 H            2.0290     1.5050     0.9500 h4         1 TA5       0.058100
     12 HG           0.6160    -2.1900    -0.1610 ho         1 TA5       0.447000
@<TRIPOS>BOND
     1     1     2 2   
     2     1     7 1   
     3     2     3 1   
     4     2     6 1   
     5     3     4 1   
     6     3     9 1   
     7     3    10 1   
     8     4    12 1   
     9     5     6 2   
    10     5     7 1   
    11     6    11 1   
    12     7     8 1   
@<TRIPOS>SUBSTRUCTURE
     1 TA5         1 TEMP              0 ****  ****    0 ROOT
