@<TRIPOS>MOLECULE
TA5
   12    12     1     0     0
SMALL
bcc


@<TRIPOS>ATOM
      1 N           -1.2180     1.5560     0.9540 nc         1 TA5      -0.500800
      2 CA          -0.1260     0.8750     0.6460 cd         1 TA5       0.202300
      3 CB          -0.1450    -0.3570    -0.1900 c3         1 TA5       0.120100
      4 OG           0.7940    -1.2600     0.3430 oh         1 TA5      -0.592800
      5 NT           0.5130     2.6100     1.8530 nc         1 TA5      -0.502800
      6 C            0.9660     1.5420     1.2170 cd         1 TA5       0.220900
      7 N2          -0.7770     2.5650     1.6590 na         1 TA5       0.161900
      8 H2          -1.3990     3.2640     2.0350 hn         1 TA5       0.349700
      9 HBC1        -1.1620    -0.7660    -0.2040 h1         1 TA5       0.037200
     10 HBC2         0.1010    -0.0920    -1.2250 h1         1 TA5       0.037200
     11 H            2.0150     1.2980     1.1940 h4         1 TA5       0.058100
     12 HG           0.9130    -1.9740    -0.2900 ho         1 TA5       0.408000
@<TRIPOS>BOND
     1     1     2 2   
     2     1     7 1   
     3     2     3 1   
     4     2     6 1   
     5     3     4 1   
     6     3     9 1   
     7     3    10 1   
     8     4    12 1   
     9     5     6 2   
    10     5     7 1   
    11     6    11 1   
    12     7     8 1   
@<TRIPOS>SUBSTRUCTURE
     1 TA5         1 TEMP              0 ****  ****    0 ROOT
