@<TRIPOS>MOLECULE
TA7
   26    26     1     0     0
SMALL
No Charge or Current Charge


@<TRIPOS>ATOM
      1 CAA          5.9480     1.1770    -0.6210 c3         1 TA7       0.146900
      2 OAB         -0.7380    -1.1160     1.7130 o          1 TA7      -0.514100
      3 OAC         -1.4990     0.0290    -1.8080 o          1 TA7      -0.428100
      4 FAD         -3.5970    -1.2090     0.5550 f          1 TA7      -0.102000
      5 FAE         -4.0170    -0.9950    -1.5720 f          1 TA7      -0.102000
      6 FAF         -4.3460     0.6860    -0.2250 f          1 TA7      -0.102000
      7 CAG          3.1270     1.1720     0.0900 ca         1 TA7      -0.191500
      8 CAH          3.2240    -1.2530     0.1270 ca         1 TA7      -0.191500
      9 CAI          1.7640     1.1240     0.4310 ca         1 TA7      -0.018000
     10 CAJ          1.8630    -1.3060     0.4690 ca         1 TA7      -0.018000
     11 CAK         -1.3450     0.7980     0.4460 c3         1 TA7      -0.286400
     12 OAL          5.2010    -0.0330    -0.4010 os         1 TA7      -0.334100
     13 CAM         -0.3470    -0.2150     0.9840 c          1 TA7       0.604700
     14 CAN         -2.0620     0.1360    -0.7250 c          1 TA7       0.537100
     15 CAO          3.8630    -0.0210    -0.0670 ca         1 TA7       0.180100
     16 CAP          1.1140    -0.1190     0.6140 ca         1 TA7      -0.222600
     17 CAQ         -3.5180    -0.3520    -0.4890 c3         1 TA7       0.202000
     18 HAA          5.5190     1.7560    -1.4490 h1         1 TA7       0.046033
     19 HAAA         5.9540     1.8020     0.2810 h1         1 TA7       0.046033
     20 HAAB         6.9890     0.9400    -0.8770 h1         1 TA7       0.046033
     21 HAG          3.5940     2.1430    -0.0410 ha         1 TA7       0.129500
     22 HAH          3.7890    -2.1740     0.0110 ha         1 TA7       0.129500
     23 HAI          1.2330     2.0620     0.5710 ha         1 TA7       0.124500
     24 HAJ          1.3890    -2.2760     0.6130 ha         1 TA7       0.124500
     25 HAK         -2.0680     1.0280     1.2360 hc         1 TA7       0.096700
     26 HAKA        -0.8380     1.6820     0.0550 hc         1 TA7       0.096700
@<TRIPOS>BOND
     1     1    12 1   
     2     1    18 1   
     3     1    19 1   
     4     1    20 1   
     5     2    13 2   
     6     3    14 2   
     7     4    17 1   
     8     5    17 1   
     9     6    17 1   
    10     7     9 ar  
    11     7    15 ar  
    12     7    21 1   
    13     8    10 ar  
    14     8    15 ar  
    15     8    22 1   
    16     9    16 ar  
    17     9    23 1   
    18    10    16 ar  
    19    10    24 1   
    20    11    13 1   
    21    11    14 1   
    22    11    25 1   
    23    11    26 1   
    24    12    15 1   
    25    13    16 1   
    26    14    17 1   
@<TRIPOS>SUBSTRUCTURE
     1 TA7         1 TEMP              0 ****  ****    0 ROOT
