@<TRIPOS>MOLECULE
TA7
   26    26     1     0     0
SMALL
bcc


@<TRIPOS>ATOM
      1 CAA          5.8220     1.4880     0.1720 c3         1 TA7       0.123700
      2 OAB         -0.7210    -1.8090    -0.1290 o          1 TA7      -0.514100
      3 OAC         -3.1140    -0.4710    -1.7050 o          1 TA7      -0.428100
      4 FAD         -2.7440    -0.4130     1.6250 f          1 TA7      -0.223300
      5 FAE         -4.5630    -0.6240     0.4840 f          1 TA7      -0.223300
      6 FAF         -3.7190     1.3340     0.8210 f          1 TA7      -0.223300
      7 CAG          3.0570     1.1160    -0.1750 ca         1 TA7      -0.209500
      8 CAH          3.3890    -1.2020     0.4180 ca         1 TA7      -0.209500
      9 CAI          1.7020     0.8660    -0.3220 ca         1 TA7      -0.036000
     10 CAJ          2.0420    -1.4350     0.2650 ca         1 TA7      -0.036000
     11 CAK         -1.1870     0.4600    -0.6310 c3         1 TA7      -0.286400
     12 OAL          5.2290     0.2150     0.3700 os         1 TA7      -0.310900
     13 CAM         -0.2630    -0.6940    -0.2660 c          1 TA7       0.604700
     14 CAN         -2.6020    -0.0380    -0.7140 c          1 TA7       0.537100
     15 CAO          3.9120     0.0800     0.1990 ca         1 TA7       0.180100
     16 CAP          1.1700    -0.4030    -0.1080 ca         1 TA7      -0.222600
     17 CAQ         -3.4280     0.0520     0.5790 c3         1 TA7       0.565900
     18 HAA          5.6890     1.8390    -0.8540 h1         1 TA7       0.046033
     19 HAAA         5.4180     2.2330     0.8600 h1         1 TA7       0.046033
     20 HAAB         6.8830     1.3650     0.3680 h1         1 TA7       0.046033
     21 HAG          3.4240     2.1170    -0.3570 ha         1 TA7       0.147500
     22 HAH          4.0540    -2.0050     0.7080 ha         1 TA7       0.147500
     23 HAI          1.0690     1.6940    -0.6120 ha         1 TA7       0.142500
     24 HAJ          1.6580    -2.4310     0.4390 ha         1 TA7       0.142500
     25 HAK         -1.0800     1.2710     0.0920 hc         1 TA7       0.096700
     26 HAKA        -0.9000     0.8590    -1.6070 hc         1 TA7       0.096700
@<TRIPOS>BOND
     1     1    12 1   
     2     1    18 1   
     3     1    19 1   
     4     1    20 1   
     5     2    13 2   
     6     3    14 2   
     7     4    17 1   
     8     5    17 1   
     9     6    17 1   
    10     7     9 ar  
    11     7    15 ar  
    12     7    21 1   
    13     8    10 ar  
    14     8    15 ar  
    15     8    22 1   
    16     9    16 ar  
    17     9    23 1   
    18    10    16 ar  
    19    10    24 1   
    20    11    13 1   
    21    11    14 1   
    22    11    25 1   
    23    11    26 1   
    24    12    15 1   
    25    13    16 1   
    26    14    17 1   
@<TRIPOS>SUBSTRUCTURE
     1 TA7         1 TEMP              0 ****  ****    0 ROOT
