@<TRIPOS>MOLECULE
TA8
   34    33     1     0     0
SMALL
bcc


@<TRIPOS>ATOM
      1 O42          6.3830     0.4040     0.1280 o          1 TA8      -0.901300
      2 O41          5.1220     1.8910    -0.9450 o          1 TA8      -0.901300
      3 C4           5.2840     0.8670    -0.2500 c          1 TA8       0.917600
      4 C41          4.0340     0.0950     0.2060 c3         1 TA8      -0.185400
      5 C32          2.7100     0.5620    -0.3790 c3         1 TA8      -0.030400
      6 C3           1.5830    -1.6790    -0.1670 c          1 TA8       0.945600
      7 O31          1.4050    -2.0030    -1.3630 o          1 TA8      -0.888300
      8 O32          1.8660    -2.4640     0.7620 o          1 TA8      -0.888300
      9 C22          0.2110     0.4470    -0.4080 c3         1 TA8      -0.014400
     10 C2          -1.2300    -0.0450     1.6180 c          1 TA8       0.942600
     11 O21         -1.1390     1.1050     2.1060 o          1 TA8      -0.887800
     12 O22         -1.4290    -1.0930     2.2690 o          1 TA8      -0.887800
     13 C10         -3.8590    -1.4140    -0.3630 c3         1 TA8      -0.057100
     14 C11         -3.6700     0.0930    -0.1900 c3         1 TA8      -0.171700
     15 C12         -2.2740     0.5480    -0.6050 c3         1 TA8      -0.025400
     16 C1          -4.8010     0.8560    -0.9190 c          1 TA8       0.922600
     17 O12         -5.9680     0.5820    -0.5620 o          1 TA8      -0.895800
     18 O11         -4.4880     1.6810    -1.8010 o          1 TA8      -0.895800
     19 C21         -1.1030    -0.1540     0.0910 c3         1 TA8      -0.182700
     20 C31          1.4810    -0.1790     0.1620 c3         1 TA8      -0.182700
     21 H411         4.1910    -0.9670    -0.0070 hc         1 TA8       0.026700
     22 H412         3.9870     0.1540     1.3010 hc         1 TA8       0.026700
     23 H321         2.5870     1.6310    -0.1820 hc         1 TA8       0.010200
     24 H322         2.7280     0.4600    -1.4680 hc         1 TA8       0.010200
     25 H31          1.4720    -0.0640     1.2520 hc         1 TA8       0.047700
     26 H221         0.2420     0.3640    -1.5000 hc         1 TA8       0.001200
     27 H222         0.2130     1.5190    -0.1860 hc         1 TA8       0.001200
     28 H21         -1.1170    -1.2140    -0.1840 hc         1 TA8       0.048700
     29 H103        -4.8750    -1.7120    -0.1040 hc         1 TA8       0.006367
     30 H11         -3.7970     0.3110     0.8790 hc         1 TA8       0.048700
     31 H121        -2.1620     0.4120    -1.6860 hc         1 TA8       0.013700
     32 H122        -2.1800     1.6230    -0.4300 hc         1 TA8       0.013700
     33 H101        -3.6750    -1.7190    -1.3970 hc         1 TA8       0.006367
     34 H102        -3.1750    -1.9730     0.2760 hc         1 TA8       0.006367
@<TRIPOS>BOND
     1     1     3 1   
     2     2     3 1   
     3     3     4 1   
     4     4     5 1   
     5     4    21 1   
     6     4    22 1   
     7     5    20 1   
     8     5    23 1   
     9     5    24 1   
    10     6     7 1   
    11     6     8 1   
    12     6    20 1   
    13     9    19 1   
    14     9    20 1   
    15     9    26 1   
    16     9    27 1   
    17    10    11 1   
    18    10    12 1   
    19    10    19 1   
    20    13    14 1   
    21    13    29 1   
    22    13    33 1   
    23    13    34 1   
    24    14    15 1   
    25    14    16 1   
    26    14    30 1   
    27    15    19 1   
    28    15    31 1   
    29    15    32 1   
    30    16    17 1   
    31    16    18 1   
    32    19    28 1   
    33    20    25 1   
@<TRIPOS>SUBSTRUCTURE
     1 TA8         1 TEMP              0 ****  ****    0 ROOT
