@<TRIPOS>MOLECULE
TA8
   34    33     1     0     0
SMALL
No Charge or Current Charge


@<TRIPOS>ATOM
      1 O42          5.8930     0.6000    -1.1960 o          1 TA8      -0.796000
      2 O41          5.5920     1.9230     0.4690 o          1 TA8      -0.796000
      3 C4           5.3070     0.9250    -0.1750 c          1 TA8       0.707000
      4 C41          4.1240     0.0590     0.2990 c3         1 TA8      -0.185400
      5 C32          2.8010     0.5610    -0.3350 c3         1 TA8      -0.030400
      6 C3           1.6030    -1.7070    -0.1650 c          1 TA8       0.735000
      7 O31          1.6280    -2.0700    -1.3330 o          1 TA8      -0.783000
      8 O32          1.6460    -2.4940     0.7700 o          1 TA8      -0.783000
      9 C22          0.2370     0.4630    -0.4260 c3         1 TA8      -0.014400
     10 C2          -1.2360     0.1720     1.6650 c          1 TA8       0.732000
     11 O21         -1.2420     1.3240     2.0760 o          1 TA8      -0.782500
     12 O22         -1.3400    -0.7930     2.4080 o          1 TA8      -0.782500
     13 C10         -3.9180    -1.5320    -0.4880 c3         1 TA8      -0.057100
     14 C11         -3.7260    -0.0170    -0.2290 c3         1 TA8      -0.171700
     15 C12         -2.3190     0.5060    -0.6470 c3         1 TA8      -0.025400
     16 C1          -4.8470     0.8070    -0.9120 c          1 TA8       0.712000
     17 O12         -5.6110     1.4440    -0.2020 o          1 TA8      -0.790500
     18 O11         -4.9380     0.7900    -2.1310 o          1 TA8      -0.790500
     19 C21         -1.1080    -0.0810     0.1400 c3         1 TA8      -0.182700
     20 C31          1.5280    -0.1900     0.1510 c3         1 TA8      -0.182700
     21 H411         4.2540    -0.9750    -0.0390 hc         1 TA8       0.026700
     22 H412         3.9930     0.1570     1.3840 hc         1 TA8       0.026700
     23 H321         2.6900     1.6270    -0.1040 hc         1 TA8       0.010200
     24 H322         2.8740     0.4860    -1.4280 hc         1 TA8       0.010200
     25 H31          1.4960    -0.0800     1.2420 hc         1 TA8       0.047700
     26 H221         0.2420     0.3370    -1.5160 hc         1 TA8       0.001200
     27 H222         0.2760     1.5450    -0.2490 hc         1 TA8       0.001200
     28 H21         -1.1110    -1.1650    -0.0200 hc         1 TA8       0.048700
     29 H103        -4.9390    -1.8370    -0.2300 hc         1 TA8       0.006367
     30 H11         -3.8340     0.1400     0.8510 hc         1 TA8       0.048700
     31 H121        -2.1770     0.3070    -1.7160 hc         1 TA8       0.013700
     32 H122        -2.3100     1.5980    -0.5360 hc         1 TA8       0.013700
     33 H101        -3.7450    -1.7760    -1.5440 hc         1 TA8       0.006367
     34 H102        -3.2290    -2.1290     0.1210 hc         1 TA8       0.006367
@<TRIPOS>BOND
     1     1     3 1   
     2     2     3 1   
     3     3     4 1   
     4     4     5 1   
     5     4    21 1   
     6     4    22 1   
     7     5    20 1   
     8     5    23 1   
     9     5    24 1   
    10     6     7 1   
    11     6     8 1   
    12     6    20 1   
    13     9    19 1   
    14     9    20 1   
    15     9    26 1   
    16     9    27 1   
    17    10    11 1   
    18    10    12 1   
    19    10    19 1   
    20    13    14 1   
    21    13    29 1   
    22    13    33 1   
    23    13    34 1   
    24    14    15 1   
    25    14    16 1   
    26    14    30 1   
    27    15    19 1   
    28    15    31 1   
    29    15    32 1   
    30    16    17 1   
    31    16    18 1   
    32    19    28 1   
    33    20    25 1   
@<TRIPOS>SUBSTRUCTURE
     1 TA8         1 TEMP              0 ****  ****    0 ROOT
