@<TRIPOS>MOLECULE
TA9
   50    53     1     0     0
SMALL
bcc


@<TRIPOS>ATOM
      1 CAK          2.2190     0.0990     0.9600 ca         1 TA9      -0.151600
      2 CAQ          1.8920     0.2000    -0.4890 c          1 TA9       0.601300
      3 OBB          0.8540    -0.1030    -1.0290 o          1 TA9      -0.491100
      4 CAN          3.1070     0.7640    -1.1290 ca         1 TA9      -0.180600
      5 CAS          3.3430     1.0550    -2.4570 ca         1 TA9      -0.056000
      6 CAH          4.5830     1.5910    -2.7980 ca         1 TA9      -0.138000
      7 CAC          5.5430     1.8230    -1.8190 ca         1 TA9      -0.104000
      8 CAR          5.2980     1.5280    -0.4770 ca         1 TA9      -0.110000
      9 CAM          4.0700     0.9950    -0.1420 cp         1 TA9      -0.016000
     10 CAL          3.5140     0.5860     1.1600 cp         1 TA9      -0.016000
     11 CAO          4.0590     0.6260     2.4270 ca         1 TA9      -0.102000
     12 CAT          3.2810     0.1740     3.4920 ca         1 TA9      -0.108000
     13 CAP          1.9940    -0.3080     3.2930 ca         1 TA9      -0.113000
     14 CAJ          1.4440    -0.3530     2.0110 ca         1 TA9      -0.083600
     15 CAI          0.0810    -0.9500     1.8020 c          1 TA9       0.684700
     16 OAZ         -0.0430    -2.1260     1.5040 o          1 TA9      -0.563100
     17 NAV         -0.9260    -0.0940     2.0170 ns         1 TA9      -0.573900
     18 CAD         -2.3330    -0.4330     1.9660 c3         1 TA9       0.104000
     19 CAA         -3.0400     0.2200     0.7800 c6         1 TA9       0.163500
     20 NAW         -2.5030    -0.3000    -0.4610 n7         1 TA9      -0.800200
     21 CAE         -3.0640     0.3310    -1.6440 c6         1 TA9       0.190500
     22 CAU         -2.3450    -0.1610    -2.8900 c3         1 TA9      -0.085100
     23 CAG         -4.5650     0.0680    -1.6980 c6         1 TA9       0.131100
     24 OAX         -4.8050    -1.3010    -1.9140 oh         1 TA9      -0.568800
     25 CAF         -5.2110     0.5460    -0.3990 c6         1 TA9       0.066100
     26 OAY         -6.5820     0.1980    -0.3460 oh         1 TA9      -0.610800
     27 CAB         -4.5380    -0.0720     0.8210 c6         1 TA9       0.156100
     28 OBA         -5.0660     0.4610     2.0130 oh         1 TA9      -0.608800
     29 HAS          2.5900     0.8730    -3.2130 ha         1 TA9       0.150000
     30 HAH          4.8030     1.8290    -3.8300 ha         1 TA9       0.138000
     31 HAC          6.4990     2.2410    -2.1040 ha         1 TA9       0.134000
     32 HAR          6.0580     1.7160     0.2710 ha         1 TA9       0.139000
     33 HAO          5.0590     1.0000     2.6050 ha         1 TA9       0.141000
     34 HAT          3.6850     0.2000     4.4950 ha         1 TA9       0.138000
     35 HAP          1.4170    -0.6520     4.1410 ha         1 TA9       0.145000
     36 HAV         -0.6920     0.8540     2.2680 hn         1 TA9       0.311500
     37 HAD1        -2.4260    -1.5160     1.8980 h1         1 TA9       0.075700
     38 HAD2        -2.7960    -0.1140     2.8990 h1         1 TA9       0.075700
     39 HAA         -2.9110     1.3160     0.8640 h1         1 TA9       0.019700
     40 HAW         -1.4970    -0.1770    -0.4720 hn         1 TA9       0.389800
     41 HAB         -4.6700    -1.1640     0.7850 h1         1 TA9       0.073700
     42 HAE         -2.9550     1.4290    -1.6030 h1         1 TA9       0.009700
     43 HAU1        -2.4200    -1.2430    -2.9900 hc         1 TA9       0.046700
     44 HAU2        -2.7690     0.2970    -3.7850 hc         1 TA9       0.046700
     45 HAU3        -1.2880     0.1020    -2.8530 hc         1 TA9       0.046700
     46 HAG         -4.9770     0.6690    -2.5260 h1         1 TA9       0.022700
     47 HAX         -5.7480    -1.4490    -1.7860 ho         1 TA9       0.407000
     48 HAF         -5.0820     1.6360    -0.3370 h1         1 TA9       0.042700
     49 HAY         -7.0830     0.8300    -0.8710 ho         1 TA9       0.410000
     50 HBA         -6.0190     0.3220     2.0020 ho         1 TA9       0.421000
@<TRIPOS>BOND
     1     1     2 1   
     2     1    10 ar  
     3     1    14 ar  
     4     2     3 2   
     5     2     4 1   
     6     4     5 ar  
     7     4     9 ar  
     8     5     6 ar  
     9     5    29 1   
    10     6     7 ar  
    11     6    30 1   
    12     7     8 ar  
    13     7    31 1   
    14     8     9 ar  
    15     8    32 1   
    16     9    10 1   
    17    10    11 ar  
    18    11    12 ar  
    19    11    33 1   
    20    12    13 ar  
    21    12    34 1   
    22    13    14 ar  
    23    13    35 1   
    24    14    15 1   
    25    15    16 2   
    26    15    17 1   
    27    17    18 1   
    28    17    36 1   
    29    18    19 1   
    30    18    37 1   
    31    18    38 1   
    32    19    20 1   
    33    19    27 1   
    34    19    39 1   
    35    20    21 1   
    36    20    40 1   
    37    21    22 1   
    38    21    23 1   
    39    21    42 1   
    40    22    43 1   
    41    22    44 1   
    42    22    45 1   
    43    23    24 1   
    44    23    25 1   
    45    23    46 1   
    46    24    47 1   
    47    25    26 1   
    48    25    27 1   
    49    25    48 1   
    50    26    49 1   
    51    27    28 1   
    52    27    41 1   
    53    28    50 1   
@<TRIPOS>SUBSTRUCTURE
     1 TA9         1 TEMP              0 ****  ****    0 ROOT
