@<TRIPOS>MOLECULE
TA9
   50    53     1     0     0
SMALL
No Charge or Current Charge


@<TRIPOS>ATOM
      1 CAK          2.3820     0.3340     0.6730 ca         1 TA9      -0.151600
      2 CAQ          2.3560     0.4810    -0.8360 c          1 TA9       0.601300
      3 OBB          1.4080     0.2910    -1.5860 o          1 TA9      -0.491100
      4 CAN          3.6990     0.9840    -1.2790 ca         1 TA9      -0.180600
      5 CAS          4.1950     1.2660    -2.5580 ca         1 TA9      -0.038000
      6 CAH          5.5190     1.7450    -2.6520 ca         1 TA9      -0.120000
      7 CAC          6.3030     1.9300    -1.4870 ca         1 TA9      -0.086000
      8 CAR          5.7740     1.6400    -0.2110 ca         1 TA9      -0.092000
      9 CAM          4.4520     1.1600    -0.1190 cp         1 TA9      -0.016000
     10 CAL          3.6540     0.7840     1.0600 cp         1 TA9      -0.016000
     11 CAO          4.0030     0.8390     2.4210 ca         1 TA9      -0.084000
     12 CAT          3.0540     0.4380     3.3790 ca         1 TA9      -0.090000
     13 CAP          1.7770    -0.0200     2.9820 ca         1 TA9      -0.095000
     14 CAJ          1.4080    -0.0930     1.6110 ca         1 TA9      -0.083600
     15 CAI          0.0500    -0.6300     1.2090 c          1 TA9       0.617700
     16 OAZ         -0.1300    -1.2790     0.1900 o          1 TA9      -0.563100
     17 NAV         -0.9680    -0.4060     2.1150 ns         1 TA9      -0.506900
     18 CAD         -2.3790    -0.8210     1.9660 c3         1 TA9       0.104000
     19 CAA         -3.1390    -0.1140     0.7930 c6         1 TA9       0.163500
     20 NAW         -2.8330    -0.8040    -0.4870 n7         1 TA9      -0.855400
     21 CAE         -3.4240    -0.1280    -1.6670 c6         1 TA9       0.190500
     22 CAU         -2.9760    -0.8670    -2.9530 c3         1 TA9      -0.085100
     23 CAG         -4.9890     0.0180    -1.5500 c6         1 TA9       0.154300
     24 OAX         -5.6850    -1.2400    -1.6510 oh         1 TA9      -0.691000
     25 CAF         -5.3590     0.6940    -0.1930 c6         1 TA9       0.089300
     26 OAY         -6.7950     0.7370    -0.0190 oh         1 TA9      -0.673000
     27 CAB         -4.6900    -0.0440     1.0100 c6         1 TA9       0.179300
     28 OBA         -5.0470     0.6420     2.2240 oh         1 TA9      -0.731000
     29 HAS          3.5820     1.1230    -3.4460 ha         1 TA9       0.132000
     30 HAH          5.9400     1.9750    -3.6290 ha         1 TA9       0.120000
     31 HAC          7.3220     2.3010    -1.5760 ha         1 TA9       0.116000
     32 HAR          6.3750     1.7830     0.6830 ha         1 TA9       0.121000
     33 HAO          4.9850     1.1900     2.7280 ha         1 TA9       0.123000
     34 HAT          3.3090     0.4740     4.4360 ha         1 TA9       0.120000
     35 HAP          1.0870    -0.3480     3.7560 ha         1 TA9       0.127000
     36 HAV         -0.7230     0.1450     2.9290 hn         1 TA9       0.311500
     37 HAD1        -2.4330    -1.9090     1.8340 h1         1 TA9       0.075700
     38 HAD2        -2.8870    -0.5810     2.9090 h1         1 TA9       0.075700
     39 HAA         -2.7610     0.9170     0.7340 h1         1 TA9       0.019700
     40 HAW         -1.8060    -0.8610    -0.5870 hn         1 TA9       0.445000
     41 HAB         -5.0720    -1.0760     1.0400 h1         1 TA9       0.073700
     42 HAE         -2.9980     0.8850    -1.7170 h1         1 TA9       0.009700
     43 HAU1        -3.3200    -1.9080    -2.9600 hc         1 TA9       0.046700
     44 HAU2        -3.3780    -0.3750    -3.8460 hc         1 TA9       0.046700
     45 HAU3        -1.8840    -0.8750    -3.0430 hc         1 TA9       0.046700
     46 HAG         -5.3260     0.6790    -2.3620 h1         1 TA9       0.022700
     47 HAX         -6.5040    -1.1010    -1.1200 ho         1 TA9       0.506000
     48 HAF         -4.9620     1.7210    -0.2170 h1         1 TA9       0.042700
     49 HAY         -7.1390     1.4550    -0.5980 ho         1 TA9       0.449000
     50 HBA         -5.9870     0.9100     2.0780 ho         1 TA9       0.520000
@<TRIPOS>BOND
     1     1     2 1   
     2     1    10 ar  
     3     1    14 ar  
     4     2     3 2   
     5     2     4 1   
     6     4     5 ar  
     7     4     9 ar  
     8     5     6 ar  
     9     5    29 1   
    10     6     7 ar  
    11     6    30 1   
    12     7     8 ar  
    13     7    31 1   
    14     8     9 ar  
    15     8    32 1   
    16     9    10 1   
    17    10    11 ar  
    18    11    12 ar  
    19    11    33 1   
    20    12    13 ar  
    21    12    34 1   
    22    13    14 ar  
    23    13    35 1   
    24    14    15 1   
    25    15    16 2   
    26    15    17 1   
    27    17    18 1   
    28    17    36 1   
    29    18    19 1   
    30    18    37 1   
    31    18    38 1   
    32    19    20 1   
    33    19    27 1   
    34    19    39 1   
    35    20    21 1   
    36    20    40 1   
    37    21    22 1   
    38    21    23 1   
    39    21    42 1   
    40    22    43 1   
    41    22    44 1   
    42    22    45 1   
    43    23    24 1   
    44    23    25 1   
    45    23    46 1   
    46    24    47 1   
    47    25    26 1   
    48    25    27 1   
    49    25    48 1   
    50    26    49 1   
    51    27    28 1   
    52    27    41 1   
    53    28    50 1   
@<TRIPOS>SUBSTRUCTURE
     1 TA9         1 TEMP              0 ****  ****    0 ROOT
