@<TRIPOS>MOLECULE
TAB
   59    61     1     0     0
SMALL
abcg2


@<TRIPOS>ATOM
      1 C1           0.5580    -1.0770    -0.2040 ca         1 TAB       0.140400
      2 C2           1.2640    -2.2660    -0.4000 ca         1 TAB       0.136000
      3 C3           1.4080    -2.8210    -1.6620 ca         1 TAB      -0.109000
      4 C4           0.8550    -2.1860    -2.7610 ca         1 TAB      -0.097000
      5 C5           0.1570    -0.9870    -2.6050 cp         1 TAB      -0.008000
      6 C6           0.0130    -0.4550    -1.3310 ca         1 TAB      -0.111000
      7 CL8          1.9660    -3.0850     0.9540 cl         1 TAB      -0.194000
      8 N8           0.4760    -0.5790     1.0970 ne         1 TAB      -0.324400
      9 C9          -0.4340    -0.3030    -3.7770 cp         1 TAB      -0.279000
     10 C10          0.1680     0.7630    -4.4230 ca         1 TAB       0.209300
     11 C11          1.4740     1.3370    -3.9570 c3         1 TAB      -0.135700
     12 N17         -0.3850     1.3660    -5.4790 nb         1 TAB      -0.288000
     13 C14         -1.5580     0.8930    -5.8920 ca         1 TAB       0.409900
     14 N22         -2.1020     1.4710    -6.9900 nv         1 TAB      -1.050900
     15 N15         -2.2330    -0.1190    -5.3500 nb         1 TAB      -0.331000
     16 C15         -1.6810    -0.7180    -4.3010 ca         1 TAB       0.424900
     17 N20         -2.3490    -1.7590    -3.7670 nv         1 TAB      -1.065900
     18 N18         -0.4640     0.8320     2.4300 nh         1 TAB      -0.478700
     19 C19          0.3970     0.3810     3.5110 c3         1 TAB       0.262100
     20 C20          1.2670     2.5930    -3.1120 c3         1 TAB      -0.082100
     21 C21         -1.5960     1.7080     2.6510 c3         1 TAB       0.242800
     22 C22         -2.8900     0.9600     2.8940 c3         1 TAB       0.135600
     23 O23         -2.7200     0.1830     4.0790 os         1 TAB      -0.457100
     24 C24         -3.7070    -0.6330     4.4420 c          1 TAB       0.596100
     25 C25         -3.3680    -1.3750     5.7000 c3         1 TAB      -0.157100
     26 O26         -4.7380    -0.7360     3.8270 o          1 TAB      -0.482000
     27 C27          1.8280     0.8300     3.3440 ca         1 TAB      -0.100300
     28 C28          2.1370     2.1880     3.3050 ca         1 TAB      -0.086000
     29 C29          2.8600    -0.0960     3.2530 ca         1 TAB      -0.086000
     30 C30          4.1790     0.3220     3.1380 ca         1 TAB      -0.115000
     31 C31          4.4790     1.6770     3.1000 ca         1 TAB      -0.103000
     32 C32          3.4530     2.6100     3.1820 ca         1 TAB      -0.115000
     33 N65         -0.3960     0.3070     1.2420 n2         1 TAB      -0.037700
     34 H3'1         1.9540    -3.7460    -1.7850 ha         1 TAB       0.130000
     35 H4'1         0.9790    -2.6160    -3.7460 ha         1 TAB       0.126000
     36 H6'1        -0.5340     0.4700    -1.2020 ha         1 TAB       0.131000
     37 H111         2.0720     1.5880    -4.8360 hc         1 TAB       0.060200
     38 H112         2.0350     0.5980    -3.3850 hc         1 TAB       0.060200
     39 HN21        -3.0770     1.3040    -7.1740 hn         1 TAB       0.486000
     40 HN22        -1.7490     2.3710    -7.2640 hn         1 TAB       0.486000
     41 HN11        -3.3010    -1.9080    -4.0550 hn         1 TAB       0.490000
     42 HN12        -2.1000    -2.1030    -2.8560 hn         1 TAB       0.490000
     43 H191        -0.0140     0.7870     4.4340 h1         1 TAB       0.064200
     44 H192         0.3510    -0.7090     3.5820 h1         1 TAB       0.064200
     45 H201         2.2250     3.0240    -2.8230 hc         1 TAB       0.037033
     46 H202         0.7090     3.3500    -3.6630 hc         1 TAB       0.037033
     47 H203         0.7160     2.3680    -2.1980 hc         1 TAB       0.037033
     48 H211        -1.3680     2.3640     3.4910 h1         1 TAB       0.069700
     49 H212        -1.7270     2.3440     1.7760 h1         1 TAB       0.069700
     50 H221        -3.7080     1.6740     3.0140 h1         1 TAB       0.061200
     51 H222        -3.1170     0.3150     2.0420 h1         1 TAB       0.061200
     52 H251        -4.1210    -2.1300     5.9100 hc         1 TAB       0.070700
     53 H252        -2.3910    -1.8510     5.6200 hc         1 TAB       0.070700
     54 H253        -3.3220    -0.6820     6.5400 hc         1 TAB       0.070700
     55 H281         1.3450     2.9250     3.3740 ha         1 TAB       0.113000
     56 H291         2.6280    -1.1530     3.2560 ha         1 TAB       0.113000
     57 H301         4.9710    -0.4120     3.0670 ha         1 TAB       0.112000
     58 H311         5.5070     2.0050     3.0050 ha         1 TAB       0.111000
     59 H321         3.6770     3.6690     3.1530 ha         1 TAB       0.112000
@<TRIPOS>BOND
     1     1     2 ar  
     2     1     6 ar  
     3     1     8 1   
     4     2     3 ar  
     5     2     7 1   
     6     3     4 ar  
     7     3    34 1   
     8     4     5 ar  
     9     4    35 1   
    10     5     6 ar  
    11     5     9 1   
    12     6    36 1   
    13     8    33 2   
    14     9    10 ar  
    15     9    16 ar  
    16    10    11 1   
    17    10    12 ar  
    18    11    20 1   
    19    11    37 1   
    20    11    38 1   
    21    12    13 ar  
    22    13    14 1   
    23    13    15 ar  
    24    14    39 1   
    25    14    40 1   
    26    15    16 ar  
    27    16    17 1   
    28    17    41 1   
    29    17    42 1   
    30    18    19 1   
    31    18    21 1   
    32    18    33 1   
    33    19    27 1   
    34    19    43 1   
    35    19    44 1   
    36    20    45 1   
    37    20    46 1   
    38    20    47 1   
    39    21    22 1   
    40    21    48 1   
    41    21    49 1   
    42    22    23 1   
    43    22    50 1   
    44    22    51 1   
    45    23    24 1   
    46    24    25 1   
    47    24    26 2   
    48    25    52 1   
    49    25    53 1   
    50    25    54 1   
    51    27    28 ar  
    52    27    29 ar  
    53    28    32 ar  
    54    28    55 1   
    55    29    30 ar  
    56    29    56 1   
    57    30    31 ar  
    58    30    57 1   
    59    31    32 ar  
    60    31    58 1   
    61    32    59 1   
@<TRIPOS>SUBSTRUCTURE
     1 TAB         1 TEMP              0 ****  ****    0 ROOT
