@<TRIPOS>MOLECULE
TAB
   59    61     1     0     0
SMALL
No Charge or Current Charge


@<TRIPOS>ATOM
      1 C1          -0.4660    -1.4930    -0.4150 ca         1 TAB       0.140400
      2 C2          -0.8110    -2.8380    -0.6830 ca         1 TAB       0.136000
      3 C3          -0.9620    -3.2710    -2.0110 ca         1 TAB      -0.109000
      4 C4          -0.7640    -2.3730    -3.0750 ca         1 TAB      -0.097000
      5 C5          -0.4120    -1.0260    -2.8290 cp         1 TAB      -0.008000
      6 C6          -0.2720    -0.6040    -1.4880 ca         1 TAB      -0.111000
      7 Cl8         -1.0550    -4.0000     0.6250 cl         1 TAB      -0.194000
      8 N8          -0.2880    -1.0210     0.9020 ne         1 TAB      -0.324400
      9 C9          -0.1910    -0.0730    -3.9570 cp         1 TAB      -0.279000
     10 C10          1.0720     0.5330    -4.2120 ca         1 TAB       0.209300
     11 C11          2.3320     0.2500    -3.3950 c3         1 TAB      -0.135700
     12 N17          1.2420     1.3860    -5.2430 nb         1 TAB      -0.288000
     13 C14          0.1690     1.6330    -6.0000 ca         1 TAB       0.409900
     14 N22          0.3480     2.4940    -7.0270 nv         1 TAB      -1.050900
     15 N15         -1.0610     1.1360    -5.8650 nb         1 TAB      -0.331000
     16 C15         -1.2270     0.2860    -4.8490 ca         1 TAB       0.424900
     17 N20         -2.4880    -0.1930    -4.7240 nv         1 TAB      -1.065900
     18 N18         -1.0940     0.1850     2.6070 nh         1 TAB      -0.478700
     19 C19          0.2480     0.3400     3.2400 c3         1 TAB       0.262100
     20 C20          2.7250     1.4150    -2.4620 c3         1 TAB      -0.082100
     21 C21         -2.2570     0.7950     3.2960 c3         1 TAB       0.242800
     22 C22         -2.9560    -0.1370     4.3140 c3         1 TAB       0.135600
     23 O23         -2.0490    -0.4110     5.4060 os         1 TAB      -0.457100
     24 C24         -2.4750    -1.2480     6.4020 c          1 TAB       0.596100
     25 C25         -1.4040    -1.4410     7.4650 c3         1 TAB      -0.157100
     26 O26         -3.5770    -1.7780     6.4420 o          1 TAB      -0.482000
     27 C27          1.1800     1.3030     2.5040 ca         1 TAB      -0.100300
     28 C28          0.8830     2.6800     2.4470 ca         1 TAB      -0.086000
     29 C29          2.3450     0.8220     1.8690 ca         1 TAB      -0.086000
     30 C30          3.1980     1.7060     1.1860 ca         1 TAB      -0.115000
     31 C31          2.8940     3.0760     1.1300 ca         1 TAB      -0.103000
     32 C32          1.7370     3.5630     1.7610 ca         1 TAB      -0.115000
     33 N65         -1.2950    -0.4510     1.4130 n2         1 TAB      -0.037700
     34 H3'1        -1.2280    -4.3060    -2.2160 ha         1 TAB       0.130000
     35 H4'1        -0.8760    -2.7210    -4.0990 ha         1 TAB       0.126000
     36 H6'1        -0.0140     0.4290    -1.2770 ha         1 TAB       0.131000
     37 H111         3.1710     0.0490    -4.0730 hc         1 TAB       0.060200
     38 H112         2.2160    -0.6600    -2.7970 hc         1 TAB       0.060200
     39 HN21        -0.4770     2.8780    -7.4810 hn         1 TAB       0.486000
     40 HN22         1.1880     3.0670    -7.0390 hn         1 TAB       0.486000
     41 HN11        -3.2300     0.2770    -5.2350 hn         1 TAB       0.490000
     42 HN12        -2.7450    -0.6450    -3.8520 hn         1 TAB       0.490000
     43 H191         0.1330     0.7040     4.2700 h1         1 TAB       0.064200
     44 H192         0.7300    -0.6430     3.3240 h1         1 TAB       0.064200
     45 H201         3.6280     1.1600    -1.8940 hc         1 TAB       0.037033
     46 H202         2.9320     2.3240    -3.0390 hc         1 TAB       0.037033
     47 H203         1.9240     1.6380    -1.7480 hc         1 TAB       0.037033
     48 H211        -1.9490     1.7110     3.8160 h1         1 TAB       0.069700
     49 H212        -3.0020     1.0970     2.5470 h1         1 TAB       0.069700
     50 H221        -3.8650     0.3580     4.6830 h1         1 TAB       0.061200
     51 H222        -3.2530    -1.0640     3.8070 h1         1 TAB       0.061200
     52 H251        -1.7260    -2.1080     8.2720 hc         1 TAB       0.070700
     53 H252        -0.4880    -1.7970     6.9820 hc         1 TAB       0.070700
     54 H253        -1.1010    -0.4590     7.8430 hc         1 TAB       0.070700
     55 H281        -0.0110     3.0660     2.9300 ha         1 TAB       0.113000
     56 H291         2.5860    -0.2380     1.9000 ha         1 TAB       0.113000
     57 H301         4.0940     1.3280     0.6990 ha         1 TAB       0.112000
     58 H311         3.5530     3.7590     0.5990 ha         1 TAB       0.111000
     59 H321         1.5000     4.6230     1.7190 ha         1 TAB       0.112000
@<TRIPOS>BOND
     1     1     2 ar  
     2     1     6 ar  
     3     1     8 1   
     4     2     3 ar  
     5     2     7 1   
     6     3     4 ar  
     7     3    34 1   
     8     4     5 ar  
     9     4    35 1   
    10     5     6 ar  
    11     5     9 1   
    12     6    36 1   
    13     8    33 2   
    14     9    10 ar  
    15     9    16 ar  
    16    10    11 1   
    17    10    12 ar  
    18    11    20 1   
    19    11    37 1   
    20    11    38 1   
    21    12    13 ar  
    22    13    14 1   
    23    13    15 ar  
    24    14    39 1   
    25    14    40 1   
    26    15    16 ar  
    27    16    17 1   
    28    17    41 1   
    29    17    42 1   
    30    18    19 1   
    31    18    21 1   
    32    18    33 1   
    33    19    27 1   
    34    19    43 1   
    35    19    44 1   
    36    20    45 1   
    37    20    46 1   
    38    20    47 1   
    39    21    22 1   
    40    21    48 1   
    41    21    49 1   
    42    22    23 1   
    43    22    50 1   
    44    22    51 1   
    45    23    24 1   
    46    24    25 1   
    47    24    26 2   
    48    25    52 1   
    49    25    53 1   
    50    25    54 1   
    51    27    28 ar  
    52    27    29 ar  
    53    28    32 ar  
    54    28    55 1   
    55    29    30 ar  
    56    29    56 1   
    57    30    31 ar  
    58    30    57 1   
    59    31    32 ar  
    60    31    58 1   
    61    32    59 1   
@<TRIPOS>SUBSTRUCTURE
     1 TAB         1 TEMP              0 ****  ****    0 ROOT
