@<TRIPOS>MOLECULE
TAD
   68    72     1     0     0
SMALL
No Charge or Current Charge


@<TRIPOS>ATOM
      1 PA          -2.4160    -1.4830     0.5810 p5         1 TAD       1.460400
      2 O1A         -2.4320    -2.0350     1.9640 o          1 TAD      -0.841000
      3 O2A         -3.1940    -2.3220    -0.3720 o          1 TAD      -0.841000
      4 O5B         -0.9020    -1.2390     0.0920 os         1 TAD      -0.598400
      5 C5B         -0.0060    -2.3590    -0.0060 c3         1 TAD       0.229600
      6 C4B          1.1860    -2.2400     1.0070 c5         1 TAD       0.139300
      7 O4B          0.9890    -1.1460     1.9510 os         1 TAD      -0.418000
      8 C3B          1.4310    -3.5250     1.8750 c5         1 TAD       0.101300
      9 O3B          2.8090    -3.7060     2.2300 oh         1 TAD      -0.714000
     10 C2B          0.5950    -3.1730     3.1340 c5         1 TAD       0.063300
     11 O2B          0.9370    -4.0070     4.2610 oh         1 TAD      -0.700000
     12 C1B          1.0110    -1.6710     3.2930 c5         1 TAD       0.331300
     13 N9A          0.2080    -0.8130     4.1630 na         1 TAD      -0.295300
     14 C8A         -1.0830    -1.0870     4.6320 cc         1 TAD       0.484700
     15 N7A         -1.5210    -0.1110     5.4560 nd         1 TAD      -0.537100
     16 C5A         -0.4590     0.7970     5.4740 ca         1 TAD      -0.065600
     17 C6A         -0.3350     2.0220     6.1640 ca         1 TAD       0.427900
     18 N6A         -1.3130     2.5250     6.9670 nv         1 TAD      -1.072900
     19 N1A          0.7820     2.7610     6.0710 nb         1 TAD      -0.330000
     20 C2A          1.7620     2.2620     5.2780 ca         1 TAD       0.137900
     21 N3A          1.7290     1.1020     4.5800 nb         1 TAD      -0.210000
     22 C4A          0.5940     0.3830     4.6970 ca         1 TAD       0.101500
     23 C3          -2.9500     0.1920     0.7390 c3         1 TAD      -0.816400
     24 PN          -3.5090     0.6840    -0.8560 p5         1 TAD       1.433400
     25 O1N         -3.7810     2.1450    -0.7410 o          1 TAD      -0.829000
     26 O2N         -4.7360    -0.0570    -1.2630 o          1 TAD      -0.829000
     27 O5D         -2.2220     0.3710    -1.7690 os         1 TAD      -0.598400
     28 C5D         -2.2370     0.5680    -3.1910 c3         1 TAD       0.222600
     29 C4D         -2.3040     2.0840    -3.5790 c5         1 TAD       0.146300
     30 O4D         -1.4100     2.9000    -2.7780 os         1 TAD      -0.430000
     31 C3D         -1.8160     2.3700    -5.0310 c5         1 TAD       0.138300
     32 O3D         -2.1890     3.6640    -5.5140 oh         1 TAD      -0.722000
     33 C2D         -0.2640     2.3310    -4.8330 c5         1 TAD       0.102300
     34 O2D          0.3860     3.1810    -5.8030 oh         1 TAD      -0.741000
     35 C1D         -0.0770     2.8290    -3.3450 c5         1 TAD       0.113000
     36 C2N          0.8410     1.9340    -2.5190 cc         1 TAD       0.254700
     37 N3N          1.9270     1.3280    -3.0050 nd         1 TAD      -0.701000
     38 C4N          2.6000     0.6530    -1.9760 cd         1 TAD       0.135500
     39 C5N          2.0120     0.8000    -0.7370 cc         1 TAD      -0.204000
     40 S1N          0.5600     1.7500    -0.8000 ss         1 TAD       0.389600
     41 C6N          3.8620    -0.1650    -2.1130 c          1 TAD       0.546600
     42 O6N          4.4320    -0.7400    -1.1960 o          1 TAD      -0.637100
     43 N6N          4.3620    -0.2400    -3.3680 nt         1 TAD      -0.612000
     44 H51A        -0.5370    -3.3030     0.1750 h1         1 TAD       0.021200
     45 H52A         0.4060    -2.4170    -1.0210 h1         1 TAD       0.021200
     46 H4B          2.0830    -2.0210     0.4130 h1         1 TAD       0.090700
     47 H3B          1.0500    -4.4290     1.3800 h1         1 TAD       0.042700
     48 HO3A         2.7810    -4.0610     3.1520 ho         1 TAD       0.503000
     49 H2B         -0.4740    -3.2580     2.9080 h1         1 TAD       0.071700
     50 HO2A         0.3880    -4.8260     4.2060 ho         1 TAD       0.495000
     51 H1B          2.0360    -1.6180     3.6810 h2         1 TAD       0.093700
     52 H8A         -1.6270    -1.9870     4.3690 h5         1 TAD       0.147800
     53 H61A        -1.0590     3.2460     7.6360 hn         1 TAD       0.492000
     54 H62A        -2.0720     1.8990     7.2280 hn         1 TAD       0.492000
     55 H2A          2.6720     2.8540     5.1960 h5         1 TAD       0.017100
     56 H31         -2.1190     0.8190     1.0610 hc         1 TAD       0.077200
     57 H32         -3.7750     0.2510     1.4490 hc         1 TAD       0.077200
     58 H51N        -3.0950     0.0520    -3.6410 h1         1 TAD       0.020700
     59 H52N        -1.3340     0.1180    -3.6230 h1         1 TAD       0.020700
     60 H4D         -3.3350     2.4320    -3.4330 h1         1 TAD       0.084700
     61 H3D         -2.1520     1.5920    -5.7310 h1         1 TAD       0.047700
     62 HO3N        -1.3150     4.0010    -5.8430 ho         1 TAD       0.504000
     63 H2D          0.0900     1.2950    -4.9410 h1         1 TAD       0.069700
     64 HO2N         1.3570     3.0120    -5.7260 ho         1 TAD       0.525000
     65 H1D          0.3350     3.8470    -3.3310 h1         1 TAD       0.060700
     66 H5N          2.3330     0.4050     0.2150 h4         1 TAD       0.200000
     67 H61N         5.2030    -0.7680    -3.5450 hn         1 TAD       0.305500
     68 H62N         3.8780     0.2400    -4.1140 hn         1 TAD       0.305500
@<TRIPOS>BOND
     1     1     2 1   
     2     1     3 1   
     3     1     4 1   
     4     1    23 1   
     5     4     5 1   
     6     5     6 1   
     7     5    44 1   
     8     5    45 1   
     9     6     7 1   
    10     6     8 1   
    11     6    46 1   
    12     7    12 1   
    13     8     9 1   
    14     8    10 1   
    15     8    47 1   
    16     9    48 1   
    17    10    11 1   
    18    10    12 1   
    19    10    49 1   
    20    11    50 1   
    21    12    13 1   
    22    12    51 1   
    23    13    14 1   
    24    13    22 1   
    25    14    15 2   
    26    14    52 1   
    27    15    16 1   
    28    16    17 ar  
    29    16    22 ar  
    30    17    18 1   
    31    17    19 ar  
    32    18    53 1   
    33    18    54 1   
    34    19    20 ar  
    35    20    21 ar  
    36    20    55 1   
    37    21    22 ar  
    38    23    24 1   
    39    23    56 1   
    40    23    57 1   
    41    24    25 1   
    42    24    26 1   
    43    24    27 1   
    44    27    28 1   
    45    28    29 1   
    46    28    58 1   
    47    28    59 1   
    48    29    30 1   
    49    29    31 1   
    50    29    60 1   
    51    30    35 1   
    52    31    32 1   
    53    31    33 1   
    54    31    61 1   
    55    32    62 1   
    56    33    34 1   
    57    33    35 1   
    58    33    63 1   
    59    34    64 1   
    60    35    36 1   
    61    35    65 1   
    62    36    37 2   
    63    36    40 1   
    64    37    38 1   
    65    38    39 2   
    66    38    41 1   
    67    39    40 1   
    68    39    66 1   
    69    41    42 2   
    70    41    43 1   
    71    43    67 1   
    72    43    68 1   
@<TRIPOS>SUBSTRUCTURE
     1 TAD         1 TEMP              0 ****  ****    0 ROOT
