@<TRIPOS>MOLECULE
TAD
   68    72     1     0     0
SMALL
bcc


@<TRIPOS>ATOM
      1 PA           0.5000    -1.8090     0.1720 p5         1 TAD       1.302600
      2 O1A         -0.4700    -2.4940     1.1020 o          1 TAD      -0.841000
      3 O2A          0.7080    -2.3530    -1.2170 o          1 TAD      -0.841000
      4 O5B          2.0170    -1.8300     0.8640 os         1 TAD      -0.575200
      5 C5B          2.2670    -2.2860     2.1680 c3         1 TAD       0.206400
      6 C4B          2.6740    -1.1510     3.0930 c5         1 TAD       0.116100
      7 O4B          1.5990    -0.2180     3.2830 os         1 TAD      -0.371600
      8 C3B          3.0370    -1.6540     4.4850 c5         1 TAD       0.078100
      9 O3B          3.9720    -0.7780     5.0630 oh         1 TAD      -0.591800
     10 C2B          1.6860    -1.5500     5.1930 c5         1 TAD       0.040100
     11 O2B          1.7480    -1.4650     6.5850 oh         1 TAD      -0.577800
     12 C1B          1.1540    -0.2430     4.6060 c5         1 TAD       0.278800
     13 N9A         -0.2840    -0.1370     4.6510 na         1 TAD      -0.266000
     14 C8A         -1.2060    -0.7650     3.8520 cc         1 TAD       0.484700
     15 N7A         -2.4310    -0.5730     4.2460 nd         1 TAD      -0.537100
     16 C5A         -2.3190     0.2170     5.3600 ca         1 TAD      -0.196200
     17 C6A         -3.2660     0.7700     6.2390 ca         1 TAD       0.756200
     18 N6A         -4.5820     0.5880     6.0880 nv         1 TAD      -0.962500
     19 N1A         -2.8210     1.5210     7.2520 nb         1 TAD      -0.856000
     20 C2A         -1.5100     1.7170     7.3840 ca         1 TAD       0.663900
     21 N3A         -0.5310     1.2510     6.6310 nb         1 TAD      -0.736000
     22 C4A         -0.9900     0.5030     5.6290 ca         1 TAD       0.429800
     23 C3           0.1780    -0.0160     0.1240 c3         1 TAD      -0.500800
     24 PN          -1.5730     0.3880    -0.2210 p5         1 TAD       1.275600
     25 O1N         -2.3010     0.5860     1.0790 o          1 TAD      -0.829000
     26 O2N         -2.1460    -0.5270    -1.2700 o          1 TAD      -0.829000
     27 O5D         -1.3770     1.9110    -0.8840 os         1 TAD      -0.575200
     28 C5D         -1.9370     2.2760    -2.1180 c3         1 TAD       0.199400
     29 C4D         -0.9350     3.1020    -2.9080 c5         1 TAD       0.123100
     30 O4D          0.2430     2.3410    -3.1900 os         1 TAD      -0.383600
     31 C3D         -1.4750     3.5390    -4.2640 c5         1 TAD       0.115100
     32 O3D         -0.7890     4.6990    -4.6620 oh         1 TAD      -0.599800
     33 C2D         -1.0990     2.3390    -5.1280 c5         1 TAD       0.079100
     34 O2D         -1.0880     2.6570    -6.4860 oh         1 TAD      -0.618800
     35 C1D          0.2820     1.9800    -4.5510 c5         1 TAD       0.089800
     36 C2N          0.5630     0.5220    -4.6620 cc         1 TAD       0.254700
     37 N3N          0.7660    -0.0920    -5.7840 nd         1 TAD      -0.701000
     38 C4N          0.9150    -1.4340    -5.5660 cd         1 TAD       0.200800
     39 C5N          0.8270    -1.8250    -4.2630 cc         1 TAD      -0.142400
     40 S1N          0.5340    -0.4760    -3.2630 ss         1 TAD       0.244700
     41 C6N          1.1580    -2.3660    -6.6940 c          1 TAD       0.613600
     42 O6N          1.3100    -3.5670    -6.5080 o          1 TAD      -0.637100
     43 N6N          1.2090    -1.7810    -7.8970 nt         1 TAD      -0.679000
     44 H51A         1.4080    -2.8270     2.5780 h1         1 TAD       0.021200
     45 H52A         3.1030    -2.9930     2.1310 h1         1 TAD       0.021200
     46 H4B          3.5150    -0.6130     2.6450 h1         1 TAD       0.090700
     47 H3B          3.4120    -2.6850     4.4620 h1         1 TAD       0.042700
     48 HO3A         3.9420    -0.9030     6.0190 ho         1 TAD       0.404000
     49 H2B          1.0440    -2.3790     4.8650 h1         1 TAD       0.071700
     50 HO2A         1.7890    -2.3560     6.9470 ho         1 TAD       0.396000
     51 H1B          1.5380     0.6090     5.1790 h2         1 TAD       0.093700
     52 H8A         -0.9170    -1.3280     2.9710 h5         1 TAD       0.147800
     53 H61A        -5.2150     0.9040     6.8030 hn         1 TAD       0.436800
     54 H62A        -4.9310    -0.0640     5.4090 hn         1 TAD       0.436800
     55 H2A         -1.2150     2.3400     8.2220 h5         1 TAD       0.017100
     56 H31          0.8260     0.4370    -0.6280 hc         1 TAD       0.077200
     57 H32          0.4450     0.4180     1.0880 hc         1 TAD       0.077200
     58 H51N        -2.8340     2.8880    -1.9650 h1         1 TAD       0.020700
     59 H52N        -2.2450     1.3940    -2.6880 h1         1 TAD       0.020700
     60 H4D         -0.6420     3.9740    -2.3140 h1         1 TAD       0.084700
     61 H3D         -2.5610     3.7000    -4.2410 h1         1 TAD       0.047700
     62 HO3N        -0.9530     4.8440    -5.6000 ho         1 TAD       0.405000
     63 H2D         -1.8040     1.5240    -4.9180 h1         1 TAD       0.069700
     64 HO2N        -0.8070     1.8790    -6.9820 ho         1 TAD       0.426000
     65 H1D          1.0570     2.5420    -5.0880 h1         1 TAD       0.060700
     66 H5N          0.9200    -2.8180    -3.8580 h4         1 TAD       0.218000
     67 H61N         1.3870    -2.3260    -8.7240 hn         1 TAD       0.305500
     68 H62N         1.0950    -0.7860    -7.9940 hn         1 TAD       0.305500
@<TRIPOS>BOND
     1     1     2 1   
     2     1     3 1   
     3     1     4 1   
     4     1    23 1   
     5     4     5 1   
     6     5     6 1   
     7     5    44 1   
     8     5    45 1   
     9     6     7 1   
    10     6     8 1   
    11     6    46 1   
    12     7    12 1   
    13     8     9 1   
    14     8    10 1   
    15     8    47 1   
    16     9    48 1   
    17    10    11 1   
    18    10    12 1   
    19    10    49 1   
    20    11    50 1   
    21    12    13 1   
    22    12    51 1   
    23    13    14 1   
    24    13    22 1   
    25    14    15 2   
    26    14    52 1   
    27    15    16 1   
    28    16    17 ar  
    29    16    22 ar  
    30    17    18 1   
    31    17    19 ar  
    32    18    53 1   
    33    18    54 1   
    34    19    20 ar  
    35    20    21 ar  
    36    20    55 1   
    37    21    22 ar  
    38    23    24 1   
    39    23    56 1   
    40    23    57 1   
    41    24    25 1   
    42    24    26 1   
    43    24    27 1   
    44    27    28 1   
    45    28    29 1   
    46    28    58 1   
    47    28    59 1   
    48    29    30 1   
    49    29    31 1   
    50    29    60 1   
    51    30    35 1   
    52    31    32 1   
    53    31    33 1   
    54    31    61 1   
    55    32    62 1   
    56    33    34 1   
    57    33    35 1   
    58    33    63 1   
    59    34    64 1   
    60    35    36 1   
    61    35    65 1   
    62    36    37 2   
    63    36    40 1   
    64    37    38 1   
    65    38    39 2   
    66    38    41 1   
    67    39    40 1   
    68    39    66 1   
    69    41    42 2   
    70    41    43 1   
    71    43    67 1   
    72    43    68 1   
@<TRIPOS>SUBSTRUCTURE
     1 TAD         1 TEMP              0 ****  ****    0 ROOT
