@<TRIPOS>MOLECULE
TAG
   24    23     1     0     0
SMALL
No Charge or Current Charge


@<TRIPOS>ATOM
      1 C1          -2.7660    -0.9480    -0.3900 c3         1 TAG       0.067600
      2 O1          -4.1490    -0.6510    -0.7060 oh         1 TAG      -0.627000
      3 C2          -2.0640     0.1720     0.4370 c          1 TAG       0.549100
      4 O2          -2.6440     0.7790     1.3360 o          1 TAG      -0.490100
      5 C3          -0.6740     0.6590    -0.0770 c3         1 TAG       0.044300
      6 O3          -0.4340     2.0610     0.2520 oh         1 TAG      -0.696000
      7 C4           0.4810    -0.2270     0.4800 c3         1 TAG       0.143300
      8 O4           0.2130    -1.6090     0.2100 oh         1 TAG      -0.715000
      9 C5           1.8660     0.0890    -0.1610 c3         1 TAG       0.137300
     10 O5           1.9330    -0.4960    -1.4770 oh         1 TAG      -0.738000
     11 C6           3.0680    -0.4660     0.6480 c3         1 TAG       0.120600
     12 O6           4.2730    -0.3250    -0.1330 oh         1 TAG      -0.732000
     13 H11         -2.6930    -1.8760     0.1930 h1         1 TAG       0.040700
     14 H12         -2.1950    -1.1010    -1.3150 h1         1 TAG       0.040700
     15 HO1         -4.5140    -1.4230    -1.1960 ho         1 TAG       0.446000
     16 H3          -0.6870     0.5380    -1.1690 h1         1 TAG       0.097700
     17 HO3         -1.0570     2.3020     0.9830 ho         1 TAG       0.516000
     18 H4           0.5470    -0.0570     1.5650 h1         1 TAG       0.081700
     19 HO4          0.7410    -1.7700    -0.6150 ho         1 TAG       0.518000
     20 H5           1.9890     1.1800    -0.2210 h1         1 TAG       0.069700
     21 HO5          2.9110    -0.5520    -1.6400 ho         1 TAG       0.530000
     22 H61          3.1490     0.0890     1.5930 h1         1 TAG       0.040700
     23 H62          2.8930    -1.5220     0.8950 h1         1 TAG       0.040700
     24 HO6          5.0280    -0.6000     0.4410 ho         1 TAG       0.513000
@<TRIPOS>BOND
     1     1     2 1   
     2     1     3 1   
     3     1    13 1   
     4     1    14 1   
     5     2    15 1   
     6     3     4 2   
     7     3     5 1   
     8     5     6 1   
     9     5     7 1   
    10     5    16 1   
    11     6    17 1   
    12     7     8 1   
    13     7     9 1   
    14     7    18 1   
    15     8    19 1   
    16     9    10 1   
    17     9    11 1   
    18     9    20 1   
    19    10    21 1   
    20    11    12 1   
    21    11    22 1   
    22    11    23 1   
    23    12    24 1   
@<TRIPOS>SUBSTRUCTURE
     1 TAG         1 TEMP              0 ****  ****    0 ROOT
