@<TRIPOS>MOLECULE
TAG
   24    23     1     0     0
SMALL
bcc


@<TRIPOS>ATOM
      1 C1          -2.7830    -0.7680    -0.5930 c3         1 TAG       0.044400
      2 O1          -3.9460    -1.1430     0.0770 oh         1 TAG      -0.564800
      3 C2          -1.9710     0.1620     0.2540 c          1 TAG       0.549100
      4 O2          -2.3530     0.5950     1.3140 o          1 TAG      -0.490100
      5 C3          -0.6140     0.5830    -0.3050 c3         1 TAG       0.021100
      6 O3          -0.4540     1.9720    -0.2120 oh         1 TAG      -0.573800
      7 C4           0.4870    -0.1820     0.4560 c3         1 TAG       0.120100
      8 O4           0.2100    -1.5630     0.4510 oh         1 TAG      -0.592800
      9 C5           1.8780     0.1260    -0.0870 c3         1 TAG       0.114100
     10 O5           1.9380    -0.3960    -1.3970 oh         1 TAG      -0.615800
     11 C6           2.9610    -0.4770     0.7940 c3         1 TAG       0.097400
     12 O6           4.2050    -0.1850     0.1920 oh         1 TAG      -0.609800
     13 H11         -2.1440    -1.6190    -0.8660 h1         1 TAG       0.040700
     14 H12         -2.9800    -0.2360    -1.5380 h1         1 TAG       0.040700
     15 HO1         -4.4300    -1.7540    -0.4860 ho         1 TAG       0.407000
     16 H3          -0.5600     0.3320    -1.3690 h1         1 TAG       0.097700
     17 HO3         -0.5760     2.2370     0.7080 ho         1 TAG       0.417000
     18 H4           0.4500     0.1380     1.5040 h1         1 TAG       0.081700
     19 HO4          0.4740    -1.9180    -0.4060 ho         1 TAG       0.419000
     20 H5           2.0100     1.2170    -0.0910 h1         1 TAG       0.069700
     21 HO5          2.8660    -0.4480    -1.6530 ho         1 TAG       0.431000
     22 H61          2.8850    -0.0450     1.8000 h1         1 TAG       0.040700
     23 H62          2.8080    -1.5580     0.8870 h1         1 TAG       0.040700
     24 HO6          4.8530    -0.8240     0.5010 ho         1 TAG       0.414000
@<TRIPOS>BOND
     1     1     2 1   
     2     1     3 1   
     3     1    13 1   
     4     1    14 1   
     5     2    15 1   
     6     3     4 2   
     7     3     5 1   
     8     5     6 1   
     9     5     7 1   
    10     5    16 1   
    11     6    17 1   
    12     7     8 1   
    13     7     9 1   
    14     7    18 1   
    15     8    19 1   
    16     9    10 1   
    17     9    11 1   
    18     9    20 1   
    19    10    21 1   
    20    11    12 1   
    21    11    22 1   
    22    11    23 1   
    23    12    24 1   
@<TRIPOS>SUBSTRUCTURE
     1 TAG         1 TEMP              0 ****  ****    0 ROOT
