@<TRIPOS>MOLECULE
TAH
   32    33     1     0     0
SMALL
bcc


@<TRIPOS>ATOM
      1 C10         -0.5300    -5.8320     6.0640 ca         1 TAH      -0.212000
      2 C13          0.9830    -4.3260     4.2950 ca         1 TAH      -0.053000
      3 C15          2.9380    -4.2700     5.8140 c          1 TAH       0.715700
      4 C01          0.1740   -10.7120     7.6150 ca         1 TAH      -0.120000
      5 C02         -0.7630   -10.0480     8.3950 ca         1 TAH      -0.126500
      6 C03         -0.6070    -8.6960     8.6680 ca         1 TAH      -0.114500
      7 C04          0.4900    -7.9940     8.1780 ca         1 TAH      -0.127300
      8 C05          1.4300    -8.6680     7.4030 ca         1 TAH      -0.114500
      9 C06          1.2690   -10.0170     7.1190 ca         1 TAH      -0.126500
     10 C07          0.6600    -6.5400     8.5380 c3         1 TAH       0.185700
     11 C09          0.7780    -5.4840     6.3980 ca         1 TAH       0.161100
     12 C11         -1.0620    -5.4330     4.8450 ca         1 TAH      -0.077000
     13 C12         -0.3130    -4.6810     3.9540 ca         1 TAH      -0.170000
     14 C14          1.5460    -4.7360     5.4970 ca         1 TAH      -0.192600
     15 N17          3.8190    -5.2640     6.0240 ns         1 TAH      -0.467300
     16 N18          5.1350    -5.0020     6.3590 n8         1 TAH      -0.610800
     17 O08          1.3700    -5.7930     7.5710 os         1 TAH      -0.321900
     18 O16          3.2180    -3.0850     5.8130 o          1 TAH      -0.561100
     19 H1          -1.1470    -6.4080     6.7380 ha         1 TAH       0.142000
     20 H2           1.5750    -3.7320     3.6100 ha         1 TAH       0.147000
     21 H4          -1.6210   -10.5790     8.7850 ha         1 TAH       0.133000
     22 H5          -1.3490    -8.1800     9.2670 ha         1 TAH       0.130000
     23 H6           2.2940    -8.1450     7.0130 ha         1 TAH       0.130000
     24 H7           2.0040   -10.5270     6.5090 ha         1 TAH       0.133000
     25 H8           1.2570    -6.4530     9.4480 h1         1 TAH       0.065700
     26 H9          -0.3110    -6.0820     8.7530 h1         1 TAH       0.065700
     27 H10         -2.0780    -5.7160     4.6010 ha         1 TAH       0.132000
     28 H11         -0.7340    -4.3700     3.0070 ha         1 TAH       0.138000
     29 H12          3.5020    -6.2230     5.9840 hn         1 TAH       0.302500
     30 H13          5.3270    -5.3840     7.2760 hn         1 TAH       0.340300
     31 H14          5.7420    -5.4690     5.6990 hn         1 TAH       0.340300
     32 H3           0.0490   -11.7640     7.3910 ha         1 TAH       0.134000
@<TRIPOS>BOND
     1     1    11 ar  
     2     1    12 ar  
     3     1    19 1   
     4     2    13 ar  
     5     2    14 ar  
     6     2    20 1   
     7     3    14 1   
     8     3    15 1   
     9     3    18 2   
    10     4     5 ar  
    11     4     9 ar  
    12     4    32 1   
    13     5     6 ar  
    14     5    21 1   
    15     6     7 ar  
    16     6    22 1   
    17     7     8 ar  
    18     7    10 1   
    19     8     9 ar  
    20     8    23 1   
    21     9    24 1   
    22    10    17 1   
    23    10    25 1   
    24    10    26 1   
    25    11    14 ar  
    26    11    17 1   
    27    12    13 ar  
    28    12    27 1   
    29    13    28 1   
    30    15    16 1   
    31    15    29 1   
    32    16    30 1   
    33    16    31 1   
@<TRIPOS>SUBSTRUCTURE
     1 TAH         1 TEMP              0 ****  ****    0 ROOT
