@<TRIPOS>MOLECULE
TAH
   32    33     1     0     0
SMALL
No Charge or Current Charge


@<TRIPOS>ATOM
      1 C10         -0.5900    -5.6480     6.3670 ca         1 TAH      -0.194000
      2 C13          0.7840    -4.5510     4.1940 ca         1 TAH      -0.035000
      3 C15          3.0240    -4.6750     5.3230 c          1 TAH       0.648700
      4 C01          0.1270   -10.6640     7.1480 ca         1 TAH      -0.102000
      5 C02         -0.8680    -9.9630     7.8480 ca         1 TAH      -0.108500
      6 C03         -0.6110    -8.6690     8.3340 ca         1 TAH      -0.096500
      7 C04          0.6450    -8.0650     8.1190 ca         1 TAH      -0.127300
      8 C05          1.6420    -8.7770     7.4200 ca         1 TAH      -0.096500
      9 C06          1.3830   -10.0700     6.9350 ca         1 TAH      -0.108500
     10 C07          0.9260    -6.6570     8.6470 c3         1 TAH       0.208900
     11 C09          0.8120    -5.4790     6.4510 ca         1 TAH       0.161100
     12 C11         -1.2940    -5.2810     5.2120 ca         1 TAH      -0.059000
     13 C12         -0.6050    -4.7340     4.1260 ca         1 TAH      -0.152000
     14 C14          1.5190    -4.9130     5.3500 ca         1 TAH      -0.192600
     15 N17          3.7730    -5.0170     6.4530 ns         1 TAH      -0.400300
     16 N18          5.2200    -4.8560     6.6030 n8         1 TAH      -0.721200
     17 O08          1.4940    -5.8430     7.5990 os         1 TAH      -0.345100
     18 O16          3.5750    -4.1950     4.3380 o          1 TAH      -0.561100
     19 H1          -1.1590    -6.0610     7.1930 ha         1 TAH       0.124000
     20 H2           1.2880    -4.1190     3.3310 ha         1 TAH       0.129000
     21 H4          -1.8400   -10.4220     8.0160 ha         1 TAH       0.115000
     22 H5          -1.3900    -8.1370     8.8760 ha         1 TAH       0.112000
     23 H6           2.6170    -8.3260     7.2500 ha         1 TAH       0.112000
     24 H7           2.1560   -10.6120     6.3940 ha         1 TAH       0.115000
     25 H8           1.6370    -6.7370     9.4800 h1         1 TAH       0.065700
     26 H9           0.0130    -6.2010     9.0510 h1         1 TAH       0.065700
     27 H10         -2.3720    -5.4190     5.1620 ha         1 TAH       0.114000
     28 H11         -1.1470    -4.4470     3.2280 ha         1 TAH       0.120000
     29 H12          3.2320    -5.4080     7.2260 hn         1 TAH       0.302500
     30 H13          5.4490    -4.2410     7.3980 hn         1 TAH       0.395500
     31 H14          5.6810    -5.7600     6.7880 hn         1 TAH       0.395500
     32 H3          -0.0730   -11.6650     6.7720 ha         1 TAH       0.116000
@<TRIPOS>BOND
     1     1    11 ar  
     2     1    12 ar  
     3     1    19 1   
     4     2    13 ar  
     5     2    14 ar  
     6     2    20 1   
     7     3    14 1   
     8     3    15 1   
     9     3    18 2   
    10     4     5 ar  
    11     4     9 ar  
    12     4    32 1   
    13     5     6 ar  
    14     5    21 1   
    15     6     7 ar  
    16     6    22 1   
    17     7     8 ar  
    18     7    10 1   
    19     8     9 ar  
    20     8    23 1   
    21     9    24 1   
    22    10    17 1   
    23    10    25 1   
    24    10    26 1   
    25    11    14 ar  
    26    11    17 1   
    27    12    13 ar  
    28    12    27 1   
    29    13    28 1   
    30    15    16 1   
    31    15    29 1   
    32    16    30 1   
    33    16    31 1   
@<TRIPOS>SUBSTRUCTURE
     1 TAH         1 TEMP              0 ****  ****    0 ROOT
