@<TRIPOS>MOLECULE
TAI
   53    56     1     0     0
SMALL
abcg2


@<TRIPOS>ATOM
      1 N1         -30.3670     0.4630    12.4650 nc         1 TAI      -0.562100
      2 C7         -31.2000     1.8790    14.0500 ca         1 TAI       0.144500
      3 C8         -30.4050     3.8530    14.6460 ca         1 TAI       0.177900
      4 N2         -31.3520     2.9370    14.8510 nb         1 TAI      -0.215000
      5 C9         -29.2550     2.7370    12.9640 ca         1 TAI       0.437900
      6 O1         -35.0050     1.4900    13.6400 oh         1 TAI      -0.679000
      7 C1         -34.4270     0.2450    13.9640 c5         1 TAI       0.140300
      8 C5         -31.4320    -0.0580    13.0180 cd         1 TAI       0.414700
      9 C6         -30.1950     1.6900    13.0950 ca         1 TAI      -0.088600
     10 N3         -29.4010     3.8150    13.7710 nb         1 TAI      -0.303000
     11 C4         -33.1580     0.4760    14.7870 c5         1 TAI       0.319300
     12 O3         -32.9540    -0.7050    15.5390 os         1 TAI      -0.450000
     13 C2         -34.1390    -1.5390    15.5140 c5         1 TAI       0.133300
     14 N4         -28.2110     2.7500    12.1180 nu         1 TAI      -0.909100
     15 N          -31.9870     0.7520    13.9860 na         1 TAI      -0.297300
     16 C          -35.2400    -0.6780    14.8770 c5         1 TAI       0.112300
     17 O          -35.9050     0.1260    15.8440 oh         1 TAI      -0.692000
     18 C10        -27.9990     1.8200    11.0180 c3         1 TAI       0.227800
     19 C11        -28.8980     2.1040     9.8160 c3         1 TAI      -0.104400
     20 C12        -28.6790     1.0980     8.6800 c3         1 TAI      -0.018100
     21 C13        -29.6000     1.3410     7.5140 ca         1 TAI      -0.120300
     22 C14        -30.8900     0.8060     7.4890 ca         1 TAI      -0.068500
     23 C15        -31.7680     1.0690     6.4460 ca         1 TAI      -0.171500
     24 C16        -31.3810     1.8880     5.3780 ca         1 TAI       0.277000
     25 C17        -30.0910     2.4310     5.3960 ca         1 TAI      -0.171500
     26 C18        -29.2240     2.1580     6.4470 ca         1 TAI      -0.068500
     27 N5         -32.2340     2.1030     4.2950 nv         1 TAI      -1.068000
     28 H1         -30.4580     4.7430    15.2640 h5         1 TAI       0.046100
     29 H2         -35.6270     1.3620    12.9130 ho         1 TAI       0.509000
     30 H3         -34.1740    -0.3160    13.0640 h1         1 TAI       0.066700
     31 H4         -31.8600    -1.0220    12.7900 h5         1 TAI       0.076800
     32 H5         -33.2890     1.3410    15.4410 h2         1 TAI       0.126700
     33 H8         -34.4070    -1.7640    16.5490 h1         1 TAI       0.074700
     34 H9         -27.6980     3.6200    12.1000 hn         1 TAI       0.498000
     35 H10        -35.9550    -1.2840    14.3160 h1         1 TAI       0.058700
     36 H11        -36.3910    -0.4600    16.4380 ho         1 TAI       0.501000
     37 H12        -28.1710     0.8070    11.3760 h1         1 TAI       0.063700
     38 H13        -26.9490     1.8990    10.7310 h1         1 TAI       0.063700
     39 H14        -28.7090     3.1180     9.4520 hc         1 TAI       0.051700
     40 H15        -29.9420     2.0670    10.1360 hc         1 TAI       0.051700
     41 H16        -28.8360     0.0880     9.0690 hc         1 TAI       0.045700
     42 H17        -27.6390     1.1520     8.3480 hc         1 TAI       0.045700
     43 H18        -31.2170     0.1710     8.3050 ha         1 TAI       0.110000
     44 H19        -32.7620     0.6360     6.4520 ha         1 TAI       0.110500
     45 H20        -29.7710     3.0670     4.5780 ha         1 TAI       0.110500
     46 H21        -28.2300     2.5920     6.4360 ha         1 TAI       0.110000
     47 H22        -33.2170     1.9970     4.5030 hn         1 TAI       0.441000
     48 H23        -32.0570     2.9510     3.7770 hn         1 TAI       0.441000
     49 H24        -33.3330    -3.4740    13.0370 ho         1 TAI       0.513000
     50 C3         -33.8490    -2.8550    14.8230 c3         1 TAI       0.146600
     51 O2         -33.5930    -2.6350    13.4360 oh         1 TAI      -0.739000
     52 H6         -34.7160    -3.5110    14.9610 h1         1 TAI       0.039700
     53 H7         -32.9850    -3.3190    15.3070 h1         1 TAI       0.039700
@<TRIPOS>BOND
     1     1     8 2   
     2     1     9 1   
     3     2     4 ar  
     4     2     9 ar  
     5     2    15 1   
     6     3     4 ar  
     7     3    10 ar  
     8     3    28 1   
     9     5     9 ar  
    10     5    10 ar  
    11     5    14 1   
    12     6     7 1   
    13     6    29 1   
    14     7    11 1   
    15     7    16 1   
    16     7    30 1   
    17     8    15 1   
    18     8    31 1   
    19    11    12 1   
    20    11    15 1   
    21    11    32 1   
    22    12    13 1   
    23    13    16 1   
    24    13    33 1   
    25    13    50 1   
    26    14    18 1   
    27    14    34 1   
    28    16    17 1   
    29    16    35 1   
    30    17    36 1   
    31    18    19 1   
    32    18    37 1   
    33    18    38 1   
    34    19    20 1   
    35    19    39 1   
    36    19    40 1   
    37    20    21 1   
    38    20    41 1   
    39    20    42 1   
    40    21    22 ar  
    41    21    26 ar  
    42    22    23 ar  
    43    22    43 1   
    44    23    24 ar  
    45    23    44 1   
    46    24    25 ar  
    47    24    27 1   
    48    25    26 ar  
    49    25    45 1   
    50    26    46 1   
    51    27    47 1   
    52    27    48 1   
    53    49    51 1   
    54    50    51 1   
    55    50    52 1   
    56    50    53 1   
@<TRIPOS>SUBSTRUCTURE
     1 TAI         1 TEMP              0 ****  ****    0 ROOT
