@<TRIPOS>MOLECULE
TAI
   53    56     1     0     0
SMALL
No Charge or Current Charge


@<TRIPOS>ATOM
      1 N1         -30.0690     0.3920    12.6580 nc         1 TAI      -0.562100
      2 C7         -31.2080     1.8610    14.0010 ca         1 TAI       0.144500
      3 C8         -30.5970     4.0340    14.3630 ca         1 TAI       0.177900
      4 N2         -31.4640     3.0300    14.6180 nb         1 TAI      -0.215000
      5 C9         -29.2770     2.8090    12.9420 ca         1 TAI       0.437900
      6 O1         -35.0220     1.4880    13.6180 oh         1 TAI      -0.679000
      7 C1         -34.3950     0.2300    13.9120 c5         1 TAI       0.140300
      8 C5         -31.1420    -0.1890    13.2240 cd         1 TAI       0.414700
      9 C6         -30.1320     1.6920    13.1600 ca         1 TAI      -0.088600
     10 N3         -29.5130     3.9800    13.5580 nb         1 TAI      -0.303000
     11 C4         -33.0990     0.3400    14.7790 c5         1 TAI       0.319300
     12 O3         -32.9430    -0.9560    15.4020 os         1 TAI      -0.450000
     13 C2         -34.2310    -1.6300    15.4310 c5         1 TAI       0.133300
     14 N4         -28.1420     2.8160    12.1310 nu         1 TAI      -0.909100
     15 N          -31.8770     0.6670    14.0560 na         1 TAI      -0.297300
     16 C          -35.2820    -0.6010    14.8780 c5         1 TAI       0.112300
     17 O          -35.8250     0.2510    15.9090 oh         1 TAI      -0.692000
     18 C10        -27.8370     1.9120    11.0090 c3         1 TAI       0.227800
     19 C11        -28.8230     2.1320     9.8410 c3         1 TAI      -0.104400
     20 C12        -28.5510     1.2010     8.6410 c3         1 TAI      -0.018100
     21 C13        -29.5400     1.4290     7.5060 ca         1 TAI      -0.120300
     22 C14        -30.8050     0.8110     7.5340 ca         1 TAI      -0.068500
     23 C15        -31.7200     1.0250     6.4880 ca         1 TAI      -0.171500
     24 C16        -31.3780     1.8540     5.4100 ca         1 TAI       0.277000
     25 C17        -30.1190     2.4720     5.3780 ca         1 TAI      -0.171500
     26 C18        -29.2010     2.2620     6.4220 ca         1 TAI      -0.068500
     27 N5         -32.2700     2.0610     4.3930 nv         1 TAI      -1.068000
     28 H1         -30.7910     4.9840    14.8590 h5         1 TAI       0.046100
     29 H2         -35.6100     1.6390    14.4000 ho         1 TAI       0.509000
     30 H3         -34.1890    -0.3170    12.9830 h1         1 TAI       0.066700
     31 H4         -31.4500    -1.2180    13.0750 h5         1 TAI       0.076800
     32 H5         -33.2340     1.1040    15.5560 h2         1 TAI       0.126700
     33 H8         -34.4590    -1.8750    16.4780 h1         1 TAI       0.074700
     34 H9         -27.6360     3.7010    12.1510 hn         1 TAI       0.498000
     35 H10        -36.0920    -1.1100    14.3360 h1         1 TAI       0.058700
     36 H11        -36.4240    -0.3010    16.4680 ho         1 TAI       0.501000
     37 H12        -27.8680     0.8630    11.3340 h1         1 TAI       0.063700
     38 H13        -26.8170     2.1060    10.6460 h1         1 TAI       0.063700
     39 H14        -28.7610     3.1750     9.5070 hc         1 TAI       0.051700
     40 H15        -29.8480     1.9680    10.1920 hc         1 TAI       0.051700
     41 H16        -28.6020     0.1570     8.9770 hc         1 TAI       0.045700
     42 H17        -27.5230     1.3570     8.2880 hc         1 TAI       0.045700
     43 H18        -31.0800     0.1680     8.3680 ha         1 TAI       0.110000
     44 H19        -32.6940     0.5430     6.5190 ha         1 TAI       0.110500
     45 H20        -29.8480     3.1170     4.5460 ha         1 TAI       0.110500
     46 H21        -28.2280     2.7490     6.3890 ha         1 TAI       0.110000
     47 H22        -33.2270     1.7240     4.4800 hn         1 TAI       0.441000
     48 H23        -32.0780     2.7640     3.6810 hn         1 TAI       0.441000
     49 H24        -33.8610    -3.7240    12.8570 ho         1 TAI       0.513000
     50 C3         -34.1360    -2.9870    14.6640 c3         1 TAI       0.146600
     51 O2         -33.9290    -2.8200    13.2480 oh         1 TAI      -0.739000
     52 H6         -35.0670    -3.5430    14.8430 h1         1 TAI       0.039700
     53 H7         -33.3190    -3.5750    15.1030 h1         1 TAI       0.039700
@<TRIPOS>BOND
     1     1     8 2   
     2     1     9 1   
     3     2     4 ar  
     4     2     9 ar  
     5     2    15 1   
     6     3     4 ar  
     7     3    10 ar  
     8     3    28 1   
     9     5     9 ar  
    10     5    10 ar  
    11     5    14 1   
    12     6     7 1   
    13     6    29 1   
    14     7    11 1   
    15     7    16 1   
    16     7    30 1   
    17     8    15 1   
    18     8    31 1   
    19    11    12 1   
    20    11    15 1   
    21    11    32 1   
    22    12    13 1   
    23    13    16 1   
    24    13    33 1   
    25    13    50 1   
    26    14    18 1   
    27    14    34 1   
    28    16    17 1   
    29    16    35 1   
    30    17    36 1   
    31    18    19 1   
    32    18    37 1   
    33    18    38 1   
    34    19    20 1   
    35    19    39 1   
    36    19    40 1   
    37    20    21 1   
    38    20    41 1   
    39    20    42 1   
    40    21    22 ar  
    41    21    26 ar  
    42    22    23 ar  
    43    22    43 1   
    44    23    24 ar  
    45    23    44 1   
    46    24    25 ar  
    47    24    27 1   
    48    25    26 ar  
    49    25    45 1   
    50    26    46 1   
    51    27    47 1   
    52    27    48 1   
    53    49    51 1   
    54    50    51 1   
    55    50    52 1   
    56    50    53 1   
@<TRIPOS>SUBSTRUCTURE
     1 TAI         1 TEMP              0 ****  ****    0 ROOT
