@<TRIPOS>MOLECULE
TAJ
   94   100     1     0     0
SMALL
No Charge or Current Charge


@<TRIPOS>ATOM
      1 OAH          2.0270     3.0030    -2.8070 o          1 TAJ      -0.486000
      2 CAL          2.6340     2.8940    -1.7520 c          1 TAJ       0.603100
      3 CAP          3.6600     3.9040    -1.2640 c3         1 TAJ      -0.154100
      4 OAD          2.4880     1.8510    -0.8740 os         1 TAJ      -0.461100
      5 CAZ          1.5320     0.8000    -1.1290 c6         1 TAJ       0.163300
      6 CAY          0.0710     1.3460    -0.9190 c6         1 TAJ       0.162300
      7 OAC         -0.1530     1.6890     0.4760 os         1 TAJ      -0.448100
      8 CAK          0.1880     2.9100     0.9880 c          1 TAJ       0.605100
      9 OAG          0.5980     3.8560     0.3340 o          1 TAJ      -0.493000
     10 CAO         -0.0440     2.9590     2.4890 c3         1 TAJ      -0.157100
     11 CAV          1.8060    -0.5130    -0.2770 c6         1 TAJ      -0.044700
     12 CAQ          3.2750    -1.1240    -0.4240 c6         1 TAJ      -0.011000
     13 CBN          3.5020    -1.6020    -1.9120 c3         1 TAJ      -0.101100
     14 CAR          4.4260    -0.1060    -0.0510 c6         1 TAJ       0.199300
     15 OAB          4.1100     0.6010     1.1730 os         1 TAJ      -0.432100
     16 CAJ          4.8120     1.7120     1.5480 c          1 TAJ       0.609100
     17 CAN          4.2780     2.2910     2.8490 c3         1 TAJ      -0.153100
     18 OAF          5.7430     2.1960     0.9200 o          1 TAJ      -0.499000
     19 CAA          5.8390    -0.7540     0.0510 cx         1 TAJ       0.056300
     20 OBK          6.2000    -1.3490     1.3280 op         1 TAJ      -0.423000
     21 CAE          5.9890    -2.2470     0.2200 cx         1 TAJ       0.095300
     22 CAI          4.7400    -3.1390     0.2950 c6         1 TAJ      -0.062400
     23 CAM          3.4380    -2.3310     0.6060 c6         1 TAJ      -0.157700
     24 CAS          2.2280    -3.2740     0.8470 c          1 TAJ       0.545100
     25 OBU          2.3150    -4.2080     1.6360 o          1 TAJ      -0.520100
     26 CAT          0.8220    -2.8780     0.3070 c6         1 TAJ       0.069300
     27 OBO          0.1770    -4.0290    -0.2990 oh         1 TAJ      -0.673000
     28 CAU          0.7090    -1.6140    -0.6180 c6         1 TAJ      -0.046700
     29 CAW         -0.7420    -1.0060    -0.5240 c5         1 TAJ      -0.104700
     30 CAX         -0.9870     0.2870    -1.3830 c5         1 TAJ      -0.035000
     31 CBR         -0.8520     0.0960    -2.9410 c3         1 TAJ      -0.090100
     32 CBA         -1.9640    -1.9110    -0.8950 c5         1 TAJ       0.203300
     33 OBT         -2.2420    -2.8500     0.1330 oh         1 TAJ      -0.649000
     34 CBB         -3.1110    -0.8730    -1.1830 c5         1 TAJ      -0.052700
     35 CBC         -2.4860     0.5480    -0.9210 c5         1 TAJ      -0.056700
     36 CBD         -4.4560    -1.1410    -0.3970 c5         1 TAJ      -0.009000
     37 CBP         -5.2770    -2.3810    -0.8160 c3         1 TAJ      -0.073100
     38 CBH         -4.5800    -0.6720     1.7030 c5         1 TAJ       0.109000
     39 OBQ         -4.8570    -1.8750     2.4490 oh         1 TAJ      -0.622000
     40 CBL         -3.3670    -0.0010     2.3940 c3         1 TAJ      -0.117100
     41 CBI         -5.8430     0.3200     1.7470 c          1 TAJ       0.625100
     42 OBS         -6.4870     0.5070     2.7710 o          1 TAJ      -0.503000
     43 OBJ         -6.3860     0.7300     0.5220 os         1 TAJ      -0.451100
     44 CBE         -5.5480     0.6920    -0.6490 c5         1 TAJ       0.395000
     45 OBV         -6.3740     0.6660    -1.7890 oh         1 TAJ      -0.628000
     46 CBF         -4.6380     1.9390    -0.6840 c6         1 TAJ      -0.123400
     47 CBG         -3.3380     1.7280    -1.5250 c6         1 TAJ      -0.048700
     48 CBM         -2.5990     3.0910    -1.6300 c3         1 TAJ      -0.090100
     49 H1           3.6780     4.8110    -1.8760 hc         1 TAJ       0.075700
     50 H2           3.4860     4.1160    -0.2030 hc         1 TAJ       0.075700
     51 H3           4.6400     3.4180    -1.2570 hc         1 TAJ       0.075700
     52 H4           1.6550     0.5330    -2.1850 h1         1 TAJ       0.074700
     53 H5          -0.0520     2.2500    -1.5260 h1         1 TAJ       0.090700
     54 H6           0.5030     2.1330     2.9580 hc         1 TAJ       0.069700
     55 H7           0.2200     3.9280     2.9260 hc         1 TAJ       0.069700
     56 H8          -1.0870     2.6910     2.6920 hc         1 TAJ       0.069700
     57 H9           1.6690    -0.2330     0.7770 hc         1 TAJ       0.085700
     58 H10          3.2370    -0.8310    -2.6420 hc         1 TAJ       0.046367
     59 H11          4.5480    -1.8490    -2.1240 hc         1 TAJ       0.046367
     60 H12          2.9230    -2.5010    -2.1530 hc         1 TAJ       0.046367
     61 H13          4.5040     0.6320    -0.8620 h1         1 TAJ       0.074700
     62 H14          3.2090     2.4980     2.7270 hc         1 TAJ       0.068700
     63 H15          4.2780     1.5060     3.6120 hc         1 TAJ       0.068700
     64 H16          4.8300     3.1800     3.1730 hc         1 TAJ       0.068700
     65 H17          6.6380    -0.2000    -0.4420 h1         1 TAJ       0.107700
     66 H18          6.8910    -2.7330    -0.1540 h1         1 TAJ       0.095700
     67 H19          4.6390    -3.7080    -0.6400 hc         1 TAJ       0.070200
     68 H20          4.9140    -3.8920     1.0760 hc         1 TAJ       0.070200
     69 H21          3.5820    -1.9040     1.6080 hc         1 TAJ       0.097700
     70 H22          0.2970    -2.6220     1.2400 h1         1 TAJ       0.073700
     71 H23          0.5650    -4.8360     0.1200 ho         1 TAJ       0.481000
     72 H24          0.8480    -1.9440    -1.6540 hc         1 TAJ       0.065700
     73 H25         -0.8240    -0.7530     0.5400 hc         1 TAJ       0.071700
     74 H26         -1.6190    -0.5460    -3.3800 hc         1 TAJ       0.043367
     75 H27         -0.9210     1.0590    -3.4610 hc         1 TAJ       0.043367
     76 H28          0.0980    -0.3610    -3.2340 hc         1 TAJ       0.043367
     77 H29         -1.7450    -2.4570    -1.8240 h1         1 TAJ       0.042700
     78 H30         -1.4490    -3.4440     0.1170 ho         1 TAJ       0.466000
     79 H31         -3.3790    -0.9510    -2.2410 hc         1 TAJ       0.057700
     80 H32         -2.4670     0.7740     0.1400 hc         1 TAJ       0.068700
     81 H33         -6.2670    -2.3640    -0.3460 hc         1 TAJ       0.052367
     82 H34         -5.4240    -2.4080    -1.9020 hc         1 TAJ       0.052367
     83 H35         -4.7850    -3.3120    -0.5160 hc         1 TAJ       0.052367
     84 H36         -5.2720    -1.6010     3.2970 ho         1 TAJ       0.458000
     85 H37         -3.2500     1.0470     2.1000 hc         1 TAJ       0.051367
     86 H38         -3.4900     0.0070     3.4840 hc         1 TAJ       0.051367
     87 H39         -2.4390    -0.5390     2.1770 hc         1 TAJ       0.051367
     88 H40         -7.2250     1.0420    -1.4820 ho         1 TAJ       0.463000
     89 H41         -5.2110     2.7860    -1.0860 hc         1 TAJ       0.060200
     90 H42         -4.3640     2.2330     0.3380 hc         1 TAJ       0.060200
     91 H43         -3.6230     1.4680    -2.5550 hc         1 TAJ       0.055700
     92 H44         -2.1550     3.3850    -0.6720 hc         1 TAJ       0.040367
     93 H45         -1.8130     3.0650    -2.3910 hc         1 TAJ       0.040367
     94 H46         -3.2850     3.8910    -1.9310 hc         1 TAJ       0.040367
@<TRIPOS>BOND
     1     1     2 2   
     2     2     3 1   
     3     2     4 1   
     4     3    49 1   
     5     3    50 1   
     6     3    51 1   
     7     4     5 1   
     8     5     6 1   
     9     5    11 1   
    10     5    52 1   
    11     6     7 1   
    12     6    30 1   
    13     6    53 1   
    14     7     8 1   
    15     8     9 2   
    16     8    10 1   
    17    10    54 1   
    18    10    55 1   
    19    10    56 1   
    20    11    12 1   
    21    11    28 1   
    22    11    57 1   
    23    12    13 1   
    24    12    14 1   
    25    12    23 1   
    26    13    58 1   
    27    13    59 1   
    28    13    60 1   
    29    14    15 1   
    30    14    19 1   
    31    14    61 1   
    32    15    16 1   
    33    16    17 1   
    34    16    18 2   
    35    17    62 1   
    36    17    63 1   
    37    17    64 1   
    38    19    20 1   
    39    19    21 1   
    40    19    65 1   
    41    20    21 1   
    42    21    22 1   
    43    21    66 1   
    44    22    23 1   
    45    22    67 1   
    46    22    68 1   
    47    23    24 1   
    48    23    69 1   
    49    24    25 2   
    50    24    26 1   
    51    26    27 1   
    52    26    28 1   
    53    26    70 1   
    54    27    71 1   
    55    28    29 1   
    56    28    72 1   
    57    29    30 1   
    58    29    32 1   
    59    29    73 1   
    60    30    31 1   
    61    30    35 1   
    62    31    74 1   
    63    31    75 1   
    64    31    76 1   
    65    32    33 1   
    66    32    34 1   
    67    32    77 1   
    68    33    78 1   
    69    34    35 1   
    70    34    36 1   
    71    34    79 1   
    72    35    47 1   
    73    35    80 1   
    74    36    37 1   
    75    36    38 1   
    76    36    44 1   
    77    37    81 1   
    78    37    82 1   
    79    37    83 1   
    80    38    39 1   
    81    38    40 1   
    82    38    41 1   
    83    39    84 1   
    84    40    85 1   
    85    40    86 1   
    86    40    87 1   
    87    41    42 2   
    88    41    43 1   
    89    43    44 1   
    90    44    45 1   
    91    44    46 1   
    92    45    88 1   
    93    46    47 1   
    94    46    89 1   
    95    46    90 1   
    96    47    48 1   
    97    47    91 1   
    98    48    92 1   
    99    48    93 1   
   100    48    94 1   
@<TRIPOS>SUBSTRUCTURE
     1 TAJ         1 TEMP              0 ****  ****    0 ROOT
