@<TRIPOS>MOLECULE
TAJ
   94   100     1     0     0
SMALL
abcg2


@<TRIPOS>ATOM
      1 OAH          2.2610     2.7150    -2.8610 o          1 TAJ      -0.486000
      2 CAL          2.7290     2.7160    -1.7510 c          1 TAJ       0.603100
      3 CAP          3.7040     3.7260    -1.2300 c3         1 TAJ      -0.154100
      4 OAD          2.4630     1.7740    -0.8380 os         1 TAJ      -0.461100
      5 CAZ          1.5210     0.7490    -1.1630 c6         1 TAJ       0.163300
      6 CAY          0.1240     1.3460    -0.9380 c6         1 TAJ       0.162300
      7 OAC          0.0420     1.7790     0.4190 os         1 TAJ      -0.448100
      8 CAK          0.2660     3.0490     0.7480 c          1 TAJ       0.605100
      9 OAG          0.5200     3.9220    -0.0430 o          1 TAJ      -0.493000
     10 CAO          0.1520     3.2640     2.2280 c3         1 TAJ      -0.157100
     11 CAV          1.8100    -0.5120    -0.3250 c6         1 TAJ      -0.044700
     12 CAQ          3.2560    -1.0930    -0.5230 c6         1 TAJ      -0.011000
     13 CBN          3.5300    -1.3830    -2.0020 c3         1 TAJ      -0.101100
     14 CAR          4.3530    -0.1150    -0.0360 c6         1 TAJ       0.199300
     15 OAB          3.9290     0.4040     1.2220 os         1 TAJ      -0.432100
     16 CAJ          4.5430     1.4650     1.7260 c          1 TAJ       0.609100
     17 CAN          3.9300     1.9160     3.0180 c3         1 TAJ      -0.153100
     18 OAF          5.4870     2.0000     1.1990 o          1 TAJ      -0.499000
     19 CAA          5.7350    -0.7320     0.1010 cx         1 TAJ       0.056300
     20 OBK          6.0080    -1.3660     1.3380 op         1 TAJ      -0.423000
     21 CAE          5.9230    -2.1770     0.1790 cx         1 TAJ       0.095300
     22 CAI          4.7540    -3.1040     0.0960 c6         1 TAJ      -0.062400
     23 CAM          3.4170    -2.3990     0.3110 c6         1 TAJ      -0.157700
     24 CAS          2.2900    -3.3480     0.0610 c          1 TAJ       0.545100
     25 OBU          2.4380    -4.5060    -0.2630 o          1 TAJ      -0.520100
     26 CAT          0.9040    -2.7990     0.2680 c6         1 TAJ       0.069300
     27 OBO         -0.0380    -3.7960    -0.0050 oh         1 TAJ      -0.673000
     28 CAU          0.6920    -1.5600    -0.6140 c6         1 TAJ      -0.046700
     29 CAW         -0.6730    -0.9230    -0.3310 c5         1 TAJ      -0.104700
     30 CAX         -0.9640     0.3080    -1.2000 c5         1 TAJ      -0.035000
     31 CBR         -0.9770     0.0060    -2.7050 c3         1 TAJ      -0.090100
     32 CBA         -1.9700    -1.7600    -0.3880 c5         1 TAJ       0.203300
     33 OBT         -2.2260    -2.4440     0.8080 oh         1 TAJ      -0.649000
     34 CBB         -3.0660    -0.7120    -0.7080 c5         1 TAJ      -0.052700
     35 CBC         -2.3800     0.6640    -0.6930 c5         1 TAJ      -0.056700
     36 CBD         -4.4580    -0.8220    -0.0570 c5         1 TAJ      -0.009000
     37 CBP         -5.0890    -2.1480    -0.5190 c3         1 TAJ      -0.073100
     38 CBH         -4.6690    -0.6860     1.4820 c5         1 TAJ       0.109000
     39 OBQ         -4.7760    -1.9430     2.0930 oh         1 TAJ      -0.622000
     40 CBL         -3.6790     0.1700     2.2730 c3         1 TAJ      -0.117100
     41 CBI         -6.0480    -0.0190     1.5310 c          1 TAJ       0.625100
     42 OBS         -6.7790     0.0180     2.4850 o          1 TAJ      -0.503000
     43 OBJ         -6.3700     0.5320     0.3730 os         1 TAJ      -0.451100
     44 CBE         -5.3040     0.3760    -0.6000 c5         1 TAJ       0.395000
     45 OBV         -5.8690     0.0370    -1.8040 oh         1 TAJ      -0.628000
     46 CBF         -4.5870     1.7230    -0.6930 c6         1 TAJ      -0.123400
     47 CBG         -3.2520     1.6710    -1.4360 c6         1 TAJ      -0.048700
     48 CBM         -2.6770     3.0780    -1.5310 c3         1 TAJ      -0.090100
     49 H1           3.7610     4.5740    -1.9070 hc         1 TAJ       0.075700
     50 H2           3.4270     4.0710    -0.2360 hc         1 TAJ       0.075700
     51 H3           4.6940     3.2760    -1.1530 hc         1 TAJ       0.075700
     52 H4           1.6140     0.5070    -2.2220 h1         1 TAJ       0.074700
     53 H5           0.0030     2.1950    -1.6130 h1         1 TAJ       0.090700
     54 H6          -0.1360     2.3650     2.7660 hc         1 TAJ       0.069700
     55 H7           1.1100     3.6130     2.6160 hc         1 TAJ       0.069700
     56 H8          -0.5760     4.0500     2.4260 hc         1 TAJ       0.069700
     57 H9           1.7030    -0.2460     0.7320 hc         1 TAJ       0.085700
     58 H10          3.4140    -0.4910    -2.6170 hc         1 TAJ       0.046367
     59 H11          4.5500    -1.7320    -2.1650 hc         1 TAJ       0.046367
     60 H12          2.8630    -2.1480    -2.4020 hc         1 TAJ       0.046367
     61 H13          4.4560     0.6920    -0.7600 h1         1 TAJ       0.074700
     62 H14          3.0640     1.3270     3.3060 hc         1 TAJ       0.068700
     63 H15          4.6760     1.8590     3.8110 hc         1 TAJ       0.068700
     64 H16          3.6370     2.9630     2.9320 hc         1 TAJ       0.068700
     65 H17          6.5480    -0.1250    -0.2880 h1         1 TAJ       0.107700
     66 H18          6.8720    -2.5880    -0.1590 h1         1 TAJ       0.095700
     67 H19          4.7800    -3.5930    -0.8800 hc         1 TAJ       0.070200
     68 H20          4.8720    -3.9010     0.8340 hc         1 TAJ       0.070200
     69 H21          3.3220    -2.1200     1.3700 hc         1 TAJ       0.097700
     70 H22          0.8420    -2.4820     1.3210 h1         1 TAJ       0.073700
     71 H23          0.4340    -4.6360    -0.1020 ho         1 TAJ       0.481000
     72 H24          0.7420    -1.8890    -1.6590 hc         1 TAJ       0.065700
     73 H25         -0.6240    -0.5670     0.7080 hc         1 TAJ       0.071700
     74 H26         -1.7030    -0.7620    -2.9650 hc         1 TAJ       0.043367
     75 H27         -1.2340     0.9020    -3.2730 hc         1 TAJ       0.043367
     76 H28         -0.0180    -0.3440    -3.0830 hc         1 TAJ       0.043367
     77 H29         -1.9240    -2.4670    -1.2240 h1         1 TAJ       0.042700
     78 H30         -1.6370    -3.2120     0.8060 ho         1 TAJ       0.466000
     79 H31         -3.3080    -0.8750    -1.7640 hc         1 TAJ       0.057700
     80 H32         -2.2650     1.0230     0.3320 hc         1 TAJ       0.068700
     81 H33         -6.1380    -2.2520    -0.2360 hc         1 TAJ       0.052367
     82 H34         -5.0300    -2.2420    -1.6010 hc         1 TAJ       0.052367
     83 H35         -4.5480    -2.9840    -0.0860 hc         1 TAJ       0.052367
     84 H36         -5.0390    -1.8070     3.0100 ho         1 TAJ       0.458000
     85 H37         -3.6280     1.2070     1.9490 hc         1 TAJ       0.051367
     86 H38         -3.9810     0.1870     3.3220 hc         1 TAJ       0.051367
     87 H39         -2.6820    -0.2630     2.2140 hc         1 TAJ       0.051367
     88 H40         -6.1490     0.8320    -2.2730 ho         1 TAJ       0.463000
     89 H41         -5.2630     2.4370    -1.1780 hc         1 TAJ       0.060200
     90 H42         -4.4140     2.1300     0.3060 hc         1 TAJ       0.060200
     91 H43         -3.4290     1.3060    -2.4540 hc         1 TAJ       0.055700
     92 H44         -2.4110     3.4710    -0.5480 hc         1 TAJ       0.040367
     93 H45         -1.7900     3.1200    -2.1620 hc         1 TAJ       0.040367
     94 H46         -3.4080     3.7600    -1.9680 hc         1 TAJ       0.040367
@<TRIPOS>BOND
     1     1     2 2   
     2     2     3 1   
     3     2     4 1   
     4     3    49 1   
     5     3    50 1   
     6     3    51 1   
     7     4     5 1   
     8     5     6 1   
     9     5    11 1   
    10     5    52 1   
    11     6     7 1   
    12     6    30 1   
    13     6    53 1   
    14     7     8 1   
    15     8     9 2   
    16     8    10 1   
    17    10    54 1   
    18    10    55 1   
    19    10    56 1   
    20    11    12 1   
    21    11    28 1   
    22    11    57 1   
    23    12    13 1   
    24    12    14 1   
    25    12    23 1   
    26    13    58 1   
    27    13    59 1   
    28    13    60 1   
    29    14    15 1   
    30    14    19 1   
    31    14    61 1   
    32    15    16 1   
    33    16    17 1   
    34    16    18 2   
    35    17    62 1   
    36    17    63 1   
    37    17    64 1   
    38    19    20 1   
    39    19    21 1   
    40    19    65 1   
    41    20    21 1   
    42    21    22 1   
    43    21    66 1   
    44    22    23 1   
    45    22    67 1   
    46    22    68 1   
    47    23    24 1   
    48    23    69 1   
    49    24    25 2   
    50    24    26 1   
    51    26    27 1   
    52    26    28 1   
    53    26    70 1   
    54    27    71 1   
    55    28    29 1   
    56    28    72 1   
    57    29    30 1   
    58    29    32 1   
    59    29    73 1   
    60    30    31 1   
    61    30    35 1   
    62    31    74 1   
    63    31    75 1   
    64    31    76 1   
    65    32    33 1   
    66    32    34 1   
    67    32    77 1   
    68    33    78 1   
    69    34    35 1   
    70    34    36 1   
    71    34    79 1   
    72    35    47 1   
    73    35    80 1   
    74    36    37 1   
    75    36    38 1   
    76    36    44 1   
    77    37    81 1   
    78    37    82 1   
    79    37    83 1   
    80    38    39 1   
    81    38    40 1   
    82    38    41 1   
    83    39    84 1   
    84    40    85 1   
    85    40    86 1   
    86    40    87 1   
    87    41    42 2   
    88    41    43 1   
    89    43    44 1   
    90    44    45 1   
    91    44    46 1   
    92    45    88 1   
    93    46    47 1   
    94    46    89 1   
    95    46    90 1   
    96    47    48 1   
    97    47    91 1   
    98    48    92 1   
    99    48    93 1   
   100    48    94 1   
@<TRIPOS>SUBSTRUCTURE
     1 TAJ         1 TEMP              0 ****  ****    0 ROOT
