@<TRIPOS>MOLECULE
TAK
   55    59     1     0     0
SMALL
bcc


@<TRIPOS>ATOM
      1 C1          -8.0950    -0.2280    -0.8690 c6         1 TAK       0.170300
      2 C2          -8.5510    -1.6780    -0.9400 c6         1 TAK      -0.074900
      3 C3          -8.9160    -2.1960     0.4450 c6         1 TAK      -0.075400
      4 C4          -7.7570    -1.9640     1.4050 c6         1 TAK      -0.074900
      5 C5          -7.3250    -0.5060     1.3830 c6         1 TAK       0.170300
      6 N1          -6.9720    -0.0760     0.0410 n3         1 TAK      -0.713600
      7 C6          -6.4400     1.2710     0.0220 c3         1 TAK       0.170800
      8 C7          -5.0040     1.3560     0.4910 c3         1 TAK       0.142400
      9 O1          -4.1980     0.6280    -0.4210 os         1 TAK      -0.300900
     10 C8          -2.8670     0.6190    -0.2520 ca         1 TAK       0.162100
     11 C9          -2.1240    -0.0580    -1.2230 ca         1 TAK      -0.193000
     12 C10         -0.7480    -0.1140    -1.1390 ca         1 TAK      -0.075500
     13 C11         -2.1980     1.2280     0.8080 ca         1 TAK      -0.193000
     14 C12         -0.8150     1.1570     0.8830 ca         1 TAK      -0.075500
     15 C13         -0.0640     0.4960    -0.0840 ca         1 TAK      -0.081000
     16 C14          1.4030     0.4460    -0.0100 cc         1 TAK      -0.185300
     17 C15          2.1390     1.4960     0.4620 cd         1 TAK      -0.007300
     18 C16          2.1280    -0.7050    -0.4300 cc         1 TAK       0.451200
     19 N2           3.4280    -0.8080    -0.4010 nd         1 TAK      -0.643000
     20 C17          4.1250     0.2360     0.0620 cd         1 TAK       0.386500
     21 N3           3.4810     1.3750     0.5000 na         1 TAK       0.073200
     22 N4           4.3250     2.3160     0.9270 nd         1 TAK      -0.575100
     23 C18          5.5220     1.7820     0.7640 cc         1 TAK       0.407500
     24 C19          5.4900     0.4840     0.2270 cc         1 TAK      -0.231800
     25 C20          6.6170    -0.3760    -0.0880 ca         1 TAK       0.048200
     26 C21          7.9310     0.0400     0.1500 ca         1 TAK      -0.246300
     27 C22          8.9820    -0.8000    -0.1700 ca         1 TAK       0.397200
     28 N5           8.8310    -2.0090    -0.7020 nb         1 TAK      -0.669000
     29 C23          7.5840    -2.4070    -0.9280 ca         1 TAK       0.397200
     30 C24          6.4610    -1.6480    -0.6460 ca         1 TAK      -0.246300
     31 H1          -7.7870     0.1110    -1.8610 h1         1 TAK       0.027700
     32 H1A         -8.9500     0.4050    -0.5680 h1         1 TAK       0.027700
     33 H2          -9.4010    -1.7550    -1.6210 hc         1 TAK       0.047950
     34 H2A         -7.7450    -2.2850    -1.3620 hc         1 TAK       0.047950
     35 H3          -9.8000    -1.6610     0.8080 hc         1 TAK       0.039200
     36 H3A         -9.1830    -3.2550     0.4060 hc         1 TAK       0.039200
     37 H4          -8.0340    -2.2410     2.4250 hc         1 TAK       0.047950
     38 H4A         -6.9090    -2.5940     1.1220 hc         1 TAK       0.047950
     39 H5          -8.1370     0.1220     1.7960 h1         1 TAK       0.027700
     40 H5A         -6.4660    -0.3730     2.0440 h1         1 TAK       0.027700
     41 H6          -6.4880     1.6540    -1.0000 h1         1 TAK       0.042700
     42 H6A         -7.0340     1.9670     0.6380 h1         1 TAK       0.042700
     43 H7          -4.7000     2.4080     0.5180 h1         1 TAK       0.036200
     44 H7A         -4.8870     0.9580     1.5050 h1         1 TAK       0.036200
     45 H9          -2.6370    -0.5280    -2.0530 ha         1 TAK       0.144500
     46 H10         -0.2020    -0.6230    -1.9230 ha         1 TAK       0.132000
     47 H11         -2.7320     1.7520     1.5890 ha         1 TAK       0.144500
     48 H12         -0.3220     1.6170     1.7320 ha         1 TAK       0.132000
     49 H15          1.7300     2.4380     0.7980 h4         1 TAK       0.184000
     50 H16          1.5840    -1.5700    -0.7920 h4         1 TAK       0.035100
     51 H18          6.3920     2.3590     1.0400 h4         1 TAK       0.051800
     52 H21          8.1500     1.0080     0.5810 ha         1 TAK       0.147000
     53 H22         10.0000    -0.4740     0.0140 h4         1 TAK       0.014600
     54 H23          7.4630    -3.3930    -1.3650 h4         1 TAK       0.014600
     55 H24          5.4810    -2.0470    -0.8620 ha         1 TAK       0.147000
@<TRIPOS>BOND
     1     1     2 1   
     2     1     6 1   
     3     1    31 1   
     4     1    32 1   
     5     2     3 1   
     6     2    33 1   
     7     2    34 1   
     8     3     4 1   
     9     3    35 1   
    10     3    36 1   
    11     4     5 1   
    12     4    37 1   
    13     4    38 1   
    14     5     6 1   
    15     5    39 1   
    16     5    40 1   
    17     6     7 1   
    18     7     8 1   
    19     7    41 1   
    20     7    42 1   
    21     8     9 1   
    22     8    43 1   
    23     8    44 1   
    24     9    10 1   
    25    10    11 ar  
    26    10    13 ar  
    27    11    12 ar  
    28    11    45 1   
    29    12    15 ar  
    30    12    46 1   
    31    13    14 ar  
    32    13    47 1   
    33    14    15 ar  
    34    14    48 1   
    35    15    16 1   
    36    16    17 2   
    37    16    18 1   
    38    17    21 1   
    39    17    49 1   
    40    18    19 2   
    41    18    50 1   
    42    19    20 1   
    43    20    21 1   
    44    20    24 2   
    45    21    22 1   
    46    22    23 2   
    47    23    24 1   
    48    23    51 1   
    49    24    25 1   
    50    25    26 ar  
    51    25    30 ar  
    52    26    27 ar  
    53    26    52 1   
    54    27    28 ar  
    55    27    53 1   
    56    28    29 ar  
    57    29    30 ar  
    58    29    54 1   
    59    30    55 1   
@<TRIPOS>SUBSTRUCTURE
     1 TAK         1 TEMP              0 ****  ****    0 ROOT
