@<TRIPOS>MOLECULE
TAK
   55    59     1     0     0
SMALL
No Charge or Current Charge


@<TRIPOS>ATOM
      1 C1          -8.4080    -0.1370    -0.7760 c6         1 TAK       0.170300
      2 C2          -8.9250    -1.5950    -0.8340 c6         1 TAK      -0.074900
      3 C3          -8.9590    -2.2270     0.5760 c6         1 TAK      -0.075400
      4 C4          -7.5740    -2.0940     1.2480 c6         1 TAK      -0.074900
      5 C5          -7.0900    -0.6230     1.2460 c6         1 TAK       0.170300
      6 N1          -7.0670    -0.0500    -0.1330 n3         1 TAK      -0.713600
      7 C6          -6.5120     1.3350    -0.1920 c3         1 TAK       0.170800
      8 C7          -5.0430     1.5200     0.2800 c3         1 TAK       0.165600
      9 O1          -4.1800     0.7010    -0.5340 os         1 TAK      -0.324100
     10 C8          -2.8150     0.6550    -0.3420 ca         1 TAK       0.162100
     11 C9          -2.0610    -0.1790    -1.1750 ca         1 TAK      -0.175000
     12 C10         -0.6660    -0.2700    -1.0290 ca         1 TAK      -0.057500
     13 C11         -2.1580     1.4050     0.6520 ca         1 TAK      -0.175000
     14 C12         -0.7620     1.3180     0.8000 ca         1 TAK      -0.057500
     15 C13          0.0150     0.4820    -0.0410 ca         1 TAK      -0.081000
     16 C14          1.4880     0.3700     0.0990 cc         1 TAK      -0.120000
     17 C15          2.1310     1.4230     0.7600 cd         1 TAK      -0.040000
     18 C16          2.2690    -0.7070    -0.5040 cc         1 TAK       0.385900
     19 N2           3.5930    -0.8620    -0.4750 nd         1 TAK      -0.643000
     20 C17          4.1370     0.1820     0.2420 cd         1 TAK       0.386500
     21 N3           3.5100     1.2700     0.8260 na         1 TAK       0.123900
     22 N4           4.3360     2.2290     1.3660 nd         1 TAK      -0.575100
     23 C18          5.5140     1.6660     1.1100 cc         1 TAK       0.407500
     24 C19          5.4740     0.4030     0.4500 cc         1 TAK      -0.231800
     25 C20          6.6060    -0.4140    -0.0330 ca         1 TAK       0.048200
     26 C21          7.8970     0.1510    -0.0650 ca         1 TAK      -0.163000
     27 C22          8.9900    -0.6090    -0.5120 ca         1 TAK       0.331900
     28 N5           8.8780    -1.8920    -0.9170 nb         1 TAK      -0.669000
     29 C23          7.6490    -2.4510    -0.8770 ca         1 TAK       0.331900
     30 C24          6.5050    -1.7620    -0.4450 ca         1 TAK      -0.163000
     31 H1          -8.3630     0.2580    -1.8020 h1         1 TAK       0.027700
     32 H1A         -9.1330     0.4790    -0.2240 h1         1 TAK       0.027700
     33 H2          -9.9280    -1.6170    -1.2800 hc         1 TAK       0.047950
     34 H2A         -8.2760    -2.1880    -1.4920 hc         1 TAK       0.047950
     35 H3          -9.7200    -1.7260     1.1890 hc         1 TAK       0.039200
     36 H3A         -9.2500    -3.2850     0.5110 hc         1 TAK       0.039200
     37 H4          -7.6190    -2.4690     2.2790 hc         1 TAK       0.047950
     38 H4A         -6.8430    -2.7200     0.7180 hc         1 TAK       0.047950
     39 H5          -7.7510    -0.0270     1.8930 h1         1 TAK       0.027700
     40 H5A         -6.0870    -0.5970     1.6950 h1         1 TAK       0.027700
     41 H6          -6.5660     1.7020    -1.2260 h1         1 TAK       0.042700
     42 H6A         -7.1420     2.0060     0.4080 h1         1 TAK       0.042700
     43 H7          -4.7720     2.5780     0.1790 h1         1 TAK       0.036200
     44 H7A         -4.9560     1.2470     1.3390 h1         1 TAK       0.036200
     45 H9          -2.5620    -0.7600    -1.9460 ha         1 TAK       0.126500
     46 H10         -0.1280    -0.9170    -1.7140 ha         1 TAK       0.114000
     47 H11         -2.7110     2.0550     1.3240 ha         1 TAK       0.126500
     48 H12         -0.3090     1.8910     1.6030 ha         1 TAK       0.114000
     49 H15          1.7020     2.3180     1.1900 h4         1 TAK       0.166000
     50 H16          1.7890    -1.5140    -1.0370 h4         1 TAK       0.035100
     51 H18          6.4010     2.2040     1.4170 h4         1 TAK       0.051800
     52 H21          8.0710     1.1780     0.2390 ha         1 TAK       0.129000
     53 H22          9.9880    -0.1750    -0.5480 h4         1 TAK       0.014600
     54 H23          7.5810    -3.4910    -1.1930 h4         1 TAK       0.014600
     55 H24          5.5710    -2.3080    -0.4160 ha         1 TAK       0.129000
@<TRIPOS>BOND
     1     1     2 1   
     2     1     6 1   
     3     1    31 1   
     4     1    32 1   
     5     2     3 1   
     6     2    33 1   
     7     2    34 1   
     8     3     4 1   
     9     3    35 1   
    10     3    36 1   
    11     4     5 1   
    12     4    37 1   
    13     4    38 1   
    14     5     6 1   
    15     5    39 1   
    16     5    40 1   
    17     6     7 1   
    18     7     8 1   
    19     7    41 1   
    20     7    42 1   
    21     8     9 1   
    22     8    43 1   
    23     8    44 1   
    24     9    10 1   
    25    10    11 ar  
    26    10    13 ar  
    27    11    12 ar  
    28    11    45 1   
    29    12    15 ar  
    30    12    46 1   
    31    13    14 ar  
    32    13    47 1   
    33    14    15 ar  
    34    14    48 1   
    35    15    16 1   
    36    16    17 2   
    37    16    18 1   
    38    17    21 1   
    39    17    49 1   
    40    18    19 2   
    41    18    50 1   
    42    19    20 1   
    43    20    21 1   
    44    20    24 2   
    45    21    22 1   
    46    22    23 2   
    47    23    24 1   
    48    23    51 1   
    49    24    25 1   
    50    25    26 ar  
    51    25    30 ar  
    52    26    27 ar  
    53    26    52 1   
    54    27    28 ar  
    55    27    53 1   
    56    28    29 ar  
    57    29    30 ar  
    58    29    54 1   
    59    30    55 1   
@<TRIPOS>SUBSTRUCTURE
     1 TAK         1 TEMP              0 ****  ****    0 ROOT
