@<TRIPOS>MOLECULE
TAM
   28    27     1     0     0
SMALL
abcg2


@<TRIPOS>ATOM
      1 C            1.8230    -0.1870    -1.2100 c3         1 TAM       0.189200
      2 C1           0.9980     0.2150     0.0240 c3         1 TAM      -0.102733
      3 C2           1.5520    -1.6810    -1.4530 c3         1 TAM      -0.102733
      4 C3           1.4560     0.6680    -2.4410 c3         1 TAM      -0.102733
      5 C4           1.0630     1.6800     0.4200 c3         1 TAM       0.162600
      6 C5           2.2590    -2.2990    -2.6470 c3         1 TAM       0.162600
      7 C6           0.0010     0.6150    -2.8880 c3         1 TAM       0.162600
      8 N            3.2420    -0.0370    -0.8730 n8         1 TAM      -0.990200
      9 O4           0.2960     1.8440     1.5960 oh         1 TAM      -0.659000
     10 O5           1.9440    -3.6770    -2.6680 oh         1 TAM      -0.659000
     11 O6          -0.2570     1.4710    -3.9820 oh         1 TAM      -0.659000
     12 H11          1.3450    -0.3900     0.8680 hc         1 TAM       0.056700
     13 H12         -0.0490    -0.0550    -0.1390 hc         1 TAM       0.056700
     14 H21          0.4760    -1.8400    -1.5680 hc         1 TAM       0.056700
     15 H22          1.8530    -2.2220    -0.5500 hc         1 TAM       0.056700
     16 H31          1.7200     1.7110    -2.2390 hc         1 TAM       0.056700
     17 H32          2.0900     0.3630    -3.2810 hc         1 TAM       0.056700
     18 H41          0.6760     2.3130    -0.3890 h1         1 TAM       0.026033
     19 H42          2.1030     1.9870     0.5910 h1         1 TAM       0.026033
     20 H51          3.3440    -2.1500    -2.5690 h1         1 TAM       0.026033
     21 H52          1.9390    -1.8110    -3.5750 h1         1 TAM       0.026033
     22 H61         -0.6590     0.9470    -2.0840 h1         1 TAM       0.026033
     23 H62         -0.2880    -0.4180    -3.1220 h1         1 TAM       0.026033
     24 HN1          3.4450     0.9350    -0.6710 hn         1 TAM       0.391000
     25 HN2          3.8130    -0.2530    -1.6820 hn         1 TAM       0.391000
     26 HO4          0.3280     2.7720     1.8460 ho         1 TAM       0.440333
     27 HO5          2.3680    -4.0690    -3.4360 ho         1 TAM       0.440333
     28 HO6          0.2900     1.1860    -4.7200 ho         1 TAM       0.440333
@<TRIPOS>BOND
     1     1     2 1   
     2     1     3 1   
     3     1     4 1   
     4     1     8 1   
     5     2     5 1   
     6     2    12 1   
     7     2    13 1   
     8     3     6 1   
     9     3    14 1   
    10     3    15 1   
    11     4     7 1   
    12     4    16 1   
    13     4    17 1   
    14     5     9 1   
    15     5    18 1   
    16     5    19 1   
    17     6    10 1   
    18     6    20 1   
    19     6    21 1   
    20     7    11 1   
    21     7    22 1   
    22     7    23 1   
    23     8    24 1   
    24     8    25 1   
    25     9    26 1   
    26    10    27 1   
    27    11    28 1   
@<TRIPOS>SUBSTRUCTURE
     1 TAM         1 TEMP              0 ****  ****    0 ROOT
