@<TRIPOS>MOLECULE
TAM
   28    27     1     0     0
SMALL
No Charge or Current Charge


@<TRIPOS>ATOM
      1 C            1.7970    -0.2060    -1.2420 c3         1 TAM       0.189200
      2 C1           1.0150     0.2470     0.0330 c3         1 TAM      -0.102733
      3 C2           1.5380    -1.7310    -1.4670 c3         1 TAM      -0.102733
      4 C3           1.4340     0.6500    -2.4990 c3         1 TAM      -0.102733
      5 C4           1.1340     1.7420     0.4180 c3         1 TAM       0.162600
      6 C5           2.2560    -2.3760    -2.6760 c3         1 TAM       0.162600
      7 C6          -0.0470     0.5870    -2.9420 c3         1 TAM       0.162600
      8 N            3.2330    -0.0300    -0.9820 n8         1 TAM      -0.990200
      9 O4           0.4260     1.9750     1.6410 oh         1 TAM      -0.659000
     10 O5           1.9430    -3.7740    -2.7270 oh         1 TAM      -0.659000
     11 O6          -0.2490     1.4360    -4.0770 oh         1 TAM      -0.659000
     12 H11          1.3530    -0.3540     0.8860 hc         1 TAM       0.056700
     13 H12         -0.0480     0.0090    -0.0910 hc         1 TAM       0.056700
     14 H21          0.4600    -1.9040    -1.5710 hc         1 TAM       0.056700
     15 H22          1.8400    -2.2750    -0.5640 hc         1 TAM       0.056700
     16 H31          1.6930     1.6990    -2.3140 hc         1 TAM       0.056700
     17 H32          2.0630     0.3440    -3.3430 hc         1 TAM       0.056700
     18 H41          0.7110     2.3650    -0.3810 h1         1 TAM       0.026033
     19 H42          2.1910     2.0130     0.5380 h1         1 TAM       0.026033
     20 H51          3.3410    -2.2360    -2.5810 h1         1 TAM       0.026033
     21 H52          1.9310    -1.8900    -3.6040 h1         1 TAM       0.026033
     22 H61         -0.6930     0.9130    -2.1160 h1         1 TAM       0.026033
     23 H62         -0.3180    -0.4470    -3.1930 h1         1 TAM       0.026033
     24 HN1          3.3640     0.2590    -0.0070 hn         1 TAM       0.391000
     25 HN2          3.5780     0.7690    -1.5230 hn         1 TAM       0.391000
     26 HO4          0.5220     2.9320     1.8500 ho         1 TAM       0.440333
     27 HO5          2.4380    -4.1490    -3.4890 ho         1 TAM       0.440333
     28 HO6          0.2650     1.0500    -4.8200 ho         1 TAM       0.440333
@<TRIPOS>BOND
     1     1     2 1   
     2     1     3 1   
     3     1     4 1   
     4     1     8 1   
     5     2     5 1   
     6     2    12 1   
     7     2    13 1   
     8     3     6 1   
     9     3    14 1   
    10     3    15 1   
    11     4     7 1   
    12     4    16 1   
    13     4    17 1   
    14     5     9 1   
    15     5    18 1   
    16     5    19 1   
    17     6    10 1   
    18     6    20 1   
    19     6    21 1   
    20     7    11 1   
    21     7    22 1   
    22     7    23 1   
    23     8    24 1   
    24     8    25 1   
    25     9    26 1   
    26    10    27 1   
    27    11    28 1   
@<TRIPOS>SUBSTRUCTURE
     1 TAM         1 TEMP              0 ****  ****    0 ROOT
