@<TRIPOS>MOLECULE
TAN
   15    14     1     0     0
SMALL
bcc


@<TRIPOS>ATOM
      1 C            1.0860    -0.0160    -0.0010 c1         1 TAN       0.215700
      2 N            2.2370    -0.0340    -0.0040 n1         1 TAN      -0.379800
      3 C1          -0.8540     0.0130     1.4650 c3         1 TAN      -0.084100
      4 C2          -0.3810     0.0080     0.0070 c3         1 TAN       0.014100
      5 C3          -0.8480     1.2770    -0.7150 c3         1 TAN      -0.084100
      6 C4          -0.8890    -1.2430    -0.7190 c3         1 TAN      -0.084100
      7 H1          -0.4900     0.8910     1.9980 hc         1 TAN       0.044922
      8 H1A         -1.9440     0.0310     1.4870 hc         1 TAN       0.044922
      9 H1B         -0.5190    -0.8780     1.9950 hc         1 TAN       0.044922
     10 H3          -0.5250     1.2850    -1.7550 hc         1 TAN       0.044922
     11 H3A         -1.9380     1.3160    -0.6980 hc         1 TAN       0.044922
     12 H3B         -0.4690     2.1740    -0.2270 hc         1 TAN       0.044922
     13 H4          -0.5330    -2.1540    -0.2380 hc         1 TAN       0.044922
     14 H4A         -1.9790    -1.2500    -0.6960 hc         1 TAN       0.044922
     15 H4B         -0.5710    -1.2550    -1.7610 hc         1 TAN       0.044922
@<TRIPOS>BOND
     1     1     2 3   
     2     1     4 1   
     3     3     4 1   
     4     3     7 1   
     5     3     8 1   
     6     3     9 1   
     7     4     5 1   
     8     4     6 1   
     9     5    10 1   
    10     5    11 1   
    11     5    12 1   
    12     6    13 1   
    13     6    14 1   
    14     6    15 1   
@<TRIPOS>SUBSTRUCTURE
     1 TAN         1 TEMP              0 ****  ****    0 ROOT
