@<TRIPOS>MOLECULE
TAN
   15    14     1     0     0
SMALL
No Charge or Current Charge


@<TRIPOS>ATOM
      1 C            1.1190    -0.0160    -0.0120 c1         1 TAN       0.304900
      2 N            2.2840    -0.0340     0.0020 n1         1 TAN      -0.469000
      3 C1          -0.8560     0.0130     1.4750 c3         1 TAN      -0.084100
      4 C2          -0.3600     0.0080     0.0050 c3         1 TAN       0.014100
      5 C3          -0.8610     1.2850    -0.7190 c3         1 TAN      -0.084100
      6 C4          -0.9010    -1.2510    -0.7240 c3         1 TAN      -0.084100
      7 H1          -0.4860     0.8940     2.0140 hc         1 TAN       0.044922
      8 H1A         -1.9530     0.0300     1.5160 hc         1 TAN       0.044922
      9 H1B         -0.5140    -0.8810     2.0110 hc         1 TAN       0.044922
     10 H3          -0.5220     1.3070    -1.7630 hc         1 TAN       0.044922
     11 H3A         -1.9570     1.3280    -0.7210 hc         1 TAN       0.044922
     12 H3B         -0.4900     2.1920    -0.2240 hc         1 TAN       0.044922
     13 H4          -0.5600    -2.1700    -0.2310 hc         1 TAN       0.044922
     14 H4A         -1.9980    -1.2590    -0.7260 hc         1 TAN       0.044922
     15 H4B         -0.5630    -1.2800    -1.7670 hc         1 TAN       0.044922
@<TRIPOS>BOND
     1     1     2 3   
     2     1     4 1   
     3     3     4 1   
     4     3     7 1   
     5     3     8 1   
     6     3     9 1   
     7     4     5 1   
     8     4     6 1   
     9     5    10 1   
    10     5    11 1   
    11     5    12 1   
    12     6    13 1   
    13     6    14 1   
    14     6    15 1   
@<TRIPOS>SUBSTRUCTURE
     1 TAN         1 TEMP              0 ****  ****    0 ROOT
