@<TRIPOS>MOLECULE
TAO
  124   127     1     0     0
SMALL
abcg2


@<TRIPOS>ATOM
      1 C53          6.1070     1.7080     4.3300 c3         1 TAO       0.147900
      2 O50          5.1950     0.7550     4.8220 os         1 TAO      -0.446000
      3 C48          4.0370     0.6120     4.0410 c6         1 TAO       0.156300
      4 C42          4.2650    -0.2470     2.8010 c6         1 TAO      -0.130400
      5 C36          2.9610    -0.5030     2.0650 c6         1 TAO       0.384300
      6 O43          1.9780    -1.0210     2.9190 os         1 TAO      -0.472000
      7 C49          1.6920    -0.2770     4.0930 c6         1 TAO       0.169300
      8 C52          0.6440    -1.0540     4.8620 c3         1 TAO      -0.091100
      9 C51          2.9750    -0.0590     4.8970 c6         1 TAO       0.142300
     10 O54          2.6490     0.8010     5.9860 os         1 TAO      -0.455100
     11 C55          3.1060     0.5410     7.2110 c          1 TAO       0.604100
     12 O57          3.7430    -0.4380     7.5030 o          1 TAO      -0.473000
     13 C56          2.7020     1.6240     8.1670 c3         1 TAO      -0.156100
     14 O30          2.5590     0.6960     1.4610 os         1 TAO      -0.476000
     15 C26          1.6010     0.5570     0.4330 c3         1 TAO       0.180300
     16 C31          2.2660     0.4100    -0.9660 c3         1 TAO      -0.156700
     17 C27          1.7540    -0.7980    -1.7230 c          1 TAO       0.596100
     18 O32          1.3480    -1.8170    -1.2230 o          1 TAO      -0.493000
     19 O23          1.8360    -0.5910    -3.0300 os         1 TAO      -0.456100
     20 C17          1.4150    -1.6050    -3.9600 c3         1 TAO       0.188300
     21 C22          2.4430    -2.7210    -4.0370 c3         1 TAO      -0.121100
     22 C12          1.2090    -0.9100    -5.3050 c3         1 TAO      -0.072700
     23 C16          2.4820    -0.2670    -5.8600 c3         1 TAO      -0.082100
     24 C9          -0.0180     0.0150    -5.3890 c3         1 TAO       0.190300
     25 O11         -1.1980    -0.7690    -5.1260 os         1 TAO      -0.466100
     26 C15         -1.8190    -1.3790    -6.1340 c          1 TAO       0.601100
     27 O21         -1.4320    -1.3520    -7.2750 o          1 TAO      -0.481000
     28 C20         -3.0380    -2.1120    -5.6600 c3         1 TAO      -0.157100
     29 C4          -0.1620     1.2210    -4.4580 c3         1 TAO      -0.147700
     30 C2          -1.4540     1.9520    -4.7940 c          1 TAO       0.585100
     31 O1          -1.8980     1.9730    -5.9150 o          1 TAO      -0.492100
     32 C3          -2.1390     2.7580    -3.7040 cx         1 TAO      -0.019000
     33 O6          -3.3530     3.3140    -4.1710 op         1 TAO      -0.398000
     34 C5          -2.2730     4.1970    -3.9910 cx         1 TAO       0.094600
     35 C7          -2.1560     2.2110    -2.2900 c3         1 TAO      -0.059400
     36 C10         -0.9730     2.6300    -1.3920 c3         1 TAO      -0.049700
     37 C13         -1.2700     3.9190    -0.6310 c3         1 TAO      -0.089100
     38 C14         -0.5690     1.4700    -0.4750 c3         1 TAO       0.175300
     39 O18         -1.7120     1.0860     0.2790 os         1 TAO      -0.436000
     40 C24         -1.8740    -0.2670     0.4940 c6         1 TAO       0.387300
     41 O29         -2.2670    -0.8600    -0.7090 os         1 TAO      -0.493000
     42 C35         -2.3690    -2.2750    -0.6270 c6         1 TAO       0.184300
     43 C41         -2.6390    -2.7910    -2.0230 c3         1 TAO      -0.088100
     44 C40         -3.4590    -2.6380     0.3700 c6         1 TAO      -0.141400
     45 C34         -3.1920    -1.9840     1.7320 c6         1 TAO       0.172500
     46 N39         -4.1800    -2.2340     2.7650 n3         1 TAO      -0.726600
     47 C46         -5.5530    -1.9940     2.3780 c3         1 TAO       0.157100
     48 C47         -4.0240    -3.5270     3.3930 c3         1 TAO       0.157100
     49 C28         -2.9550    -0.4830     1.5480 c6         1 TAO       0.155300
     50 O33         -2.4680     0.0450     2.7750 os         1 TAO      -0.441100
     51 C38         -3.2530     0.7940     3.5420 c          1 TAO       0.614100
     52 O45         -4.3590     1.1590     3.2330 o          1 TAO      -0.487000
     53 C44         -2.5810     1.1190     4.8430 c3         1 TAO      -0.157100
     54 C19          0.6530     1.7730     0.4330 c3         1 TAO      -0.078700
     55 C25          0.2480     2.1930     1.8410 c3         1 TAO      -0.077100
     56 C8           0.9570     2.2630    -4.5960 c3         1 TAO      -0.086100
     57 C37          3.8010     0.3540    -0.9510 c3         1 TAO      -0.077100
     58 H531         6.9100     1.8030     5.0590 h1         1 TAO       0.030367
     59 H532         6.5500     1.4170     3.3720 h1         1 TAO       0.030367
     60 H533         5.6380     2.6900     4.2020 h1         1 TAO       0.030367
     61 H48          3.6670     1.6030     3.7360 h1         1 TAO       0.057700
     62 H421         4.9770     0.2210     2.1190 hc         1 TAO       0.068700
     63 H422         4.6890    -1.2090     3.1010 hc         1 TAO       0.068700
     64 H36          3.0990    -1.2880     1.3130 h2         1 TAO       0.080700
     65 H49          1.2800     0.7040     3.8280 h1         1 TAO       0.057700
     66 H521        -0.2550    -1.1750     4.2560 hc         1 TAO       0.049700
     67 H522         1.0100    -2.0430     5.1440 hc         1 TAO       0.049700
     68 H523         0.3560    -0.5250     5.7690 hc         1 TAO       0.049700
     69 H51          3.3480    -1.0220     5.2630 h1         1 TAO       0.091700
     70 H561         3.0500     1.3950     9.1700 hc         1 TAO       0.067700
     71 H562         3.1200     2.5810     7.8550 hc         1 TAO       0.067700
     72 H563         1.6170     1.7350     8.1810 hc         1 TAO       0.067700
     73 H26          1.0020    -0.3350     0.6390 h1         1 TAO       0.070700
     74 H31          2.0120     1.2900    -1.5650 hc         1 TAO       0.076700
     75 H17          0.4630    -2.0220    -3.6170 h1         1 TAO       0.068700
     76 H221         2.4980    -3.2760    -3.1020 hc         1 TAO       0.050700
     77 H222         2.1620    -3.4250    -4.8210 hc         1 TAO       0.050700
     78 H223         3.4370    -2.3390    -4.2690 hc         1 TAO       0.050700
     79 H12          0.9650    -1.7210    -6.0000 hc         1 TAO       0.067700
     80 H161         3.1960    -1.0350    -6.1500 hc         1 TAO       0.041367
     81 H162         2.2580     0.3180    -6.7530 hc         1 TAO       0.041367
     82 H163         2.9800     0.3900    -5.1500 hc         1 TAO       0.041367
     83 H9          -0.0550     0.3830    -6.4170 h1         1 TAO       0.084700
     84 H201        -3.6200    -2.4660    -6.5050 hc         1 TAO       0.070367
     85 H202        -2.7390    -2.9720    -5.0590 hc         1 TAO       0.070367
     86 H203        -3.6590    -1.4770    -5.0290 hc         1 TAO       0.070367
     87 H4          -0.2000     0.8890    -3.4190 hc         1 TAO       0.082700
     88 H51A        -2.3580     4.8990    -3.1680 h1         1 TAO       0.080200
     89 H52         -1.8320     4.6090    -4.8960 h1         1 TAO       0.080200
     90 H71         -2.2260     1.1210    -2.3430 hc         1 TAO       0.078200
     91 H72         -3.0890     2.5390    -1.8270 hc         1 TAO       0.078200
     92 H10         -0.0930     2.8180    -2.0180 hc         1 TAO       0.043700
     93 H131        -1.5110     4.7350    -1.3110 hc         1 TAO       0.039033
     94 H132        -2.1170     3.7950     0.0450 hc         1 TAO       0.039033
     95 H133        -0.4100     4.2460    -0.0460 hc         1 TAO       0.039033
     96 H14         -0.3190     0.6460    -1.1560 h1         1 TAO       0.043700
     97 H24         -0.9400    -0.7420     0.8460 h2         1 TAO       0.038700
     98 H35         -1.4090    -2.6850    -0.2780 h1         1 TAO       0.048700
     99 H411        -1.8500    -2.4830    -2.7090 hc         1 TAO       0.045700
    100 H412        -2.6810    -3.8800    -2.0210 hc         1 TAO       0.045700
    101 H413        -3.5890    -2.4160    -2.4070 hc         1 TAO       0.045700
    102 H401        -4.4260    -2.3160    -0.0300 hc         1 TAO       0.058200
    103 H402        -3.5030    -3.7230     0.4860 hc         1 TAO       0.058200
    104 H34         -2.2470    -2.3940     2.1110 h1         1 TAO       0.064700
    105 H461        -6.1860    -2.0390     3.2660 h1         1 TAO       0.033200
    106 H462        -5.6740    -1.0000     1.9500 h1         1 TAO       0.033200
    107 H463        -5.9520    -2.7230     1.6580 h1         1 TAO       0.033200
    108 H471        -4.7140    -3.6090     4.2340 h1         1 TAO       0.033200
    109 H472        -4.2210    -4.3800     2.7250 h1         1 TAO       0.033200
    110 H473        -3.0110    -3.6360     3.7840 h1         1 TAO       0.033200
    111 H28         -3.8660     0.0340     1.2330 h1         1 TAO       0.095700
    112 H441        -3.0920     1.9400     5.3390 hc         1 TAO       0.067033
    113 H442        -2.6190     0.2460     5.4970 hc         1 TAO       0.067033
    114 H443        -1.5320     1.3740     4.7040 hc         1 TAO       0.067033
    115 H19          1.1980     2.6110    -0.0210 hc         1 TAO       0.056700
    116 H251         1.1060     2.5880     2.3810 hc         1 TAO       0.043700
    117 H252        -0.5140     2.9690     1.8260 hc         1 TAO       0.043700
    118 H253        -0.1540     1.3580     2.4110 hc         1 TAO       0.043700
    119 H81          0.6870     3.1930    -4.0960 hc         1 TAO       0.044700
    120 H82          1.8830     1.9170    -4.1460 hc         1 TAO       0.044700
    121 H83          1.1500     2.4990    -5.6430 hc         1 TAO       0.044700
    122 H371         4.1790     0.3470    -1.9730 hc         1 TAO       0.045700
    123 H372         4.2070     1.2320    -0.4530 hc         1 TAO       0.045700
    124 H373         4.1830    -0.5330    -0.4490 hc         1 TAO       0.045700
@<TRIPOS>BOND
     1     1     2 1   
     2     1    58 1   
     3     1    59 1   
     4     1    60 1   
     5     2     3 1   
     6     3     4 1   
     7     3     9 1   
     8     3    61 1   
     9     4     5 1   
    10     4    62 1   
    11     4    63 1   
    12     5     6 1   
    13     5    14 1   
    14     5    64 1   
    15     6     7 1   
    16     7     8 1   
    17     7     9 1   
    18     7    65 1   
    19     8    66 1   
    20     8    67 1   
    21     8    68 1   
    22     9    10 1   
    23     9    69 1   
    24    10    11 1   
    25    11    12 2   
    26    11    13 1   
    27    13    70 1   
    28    13    71 1   
    29    13    72 1   
    30    14    15 1   
    31    15    16 1   
    32    15    54 1   
    33    15    73 1   
    34    16    17 1   
    35    16    57 1   
    36    16    74 1   
    37    17    18 2   
    38    17    19 1   
    39    19    20 1   
    40    20    21 1   
    41    20    22 1   
    42    20    75 1   
    43    21    76 1   
    44    21    77 1   
    45    21    78 1   
    46    22    23 1   
    47    22    24 1   
    48    22    79 1   
    49    23    80 1   
    50    23    81 1   
    51    23    82 1   
    52    24    25 1   
    53    24    29 1   
    54    24    83 1   
    55    25    26 1   
    56    26    27 2   
    57    26    28 1   
    58    28    84 1   
    59    28    85 1   
    60    28    86 1   
    61    29    30 1   
    62    29    56 1   
    63    29    87 1   
    64    30    31 2   
    65    30    32 1   
    66    32    33 1   
    67    32    34 1   
    68    32    35 1   
    69    33    34 1   
    70    34    88 1   
    71    34    89 1   
    72    35    36 1   
    73    35    90 1   
    74    35    91 1   
    75    36    37 1   
    76    36    38 1   
    77    36    92 1   
    78    37    93 1   
    79    37    94 1   
    80    37    95 1   
    81    38    39 1   
    82    38    54 1   
    83    38    96 1   
    84    39    40 1   
    85    40    41 1   
    86    40    49 1   
    87    40    97 1   
    88    41    42 1   
    89    42    43 1   
    90    42    44 1   
    91    42    98 1   
    92    43    99 1   
    93    43   100 1   
    94    43   101 1   
    95    44    45 1   
    96    44   102 1   
    97    44   103 1   
    98    45    46 1   
    99    45    49 1   
   100    45   104 1   
   101    46    47 1   
   102    46    48 1   
   103    47   105 1   
   104    47   106 1   
   105    47   107 1   
   106    48   108 1   
   107    48   109 1   
   108    48   110 1   
   109    49    50 1   
   110    49   111 1   
   111    50    51 1   
   112    51    52 2   
   113    51    53 1   
   114    53   112 1   
   115    53   113 1   
   116    53   114 1   
   117    54    55 1   
   118    54   115 1   
   119    55   116 1   
   120    55   117 1   
   121    55   118 1   
   122    56   119 1   
   123    56   120 1   
   124    56   121 1   
   125    57   122 1   
   126    57   123 1   
   127    57   124 1   
@<TRIPOS>SUBSTRUCTURE
     1 TAO         1 TEMP              0 ****  ****    0 ROOT
