@<TRIPOS>MOLECULE
TAO
  124   127     1     0     0
SMALL
No Charge or Current Charge


@<TRIPOS>ATOM
      1 C53          6.3240     1.7310     4.4410 c3         1 TAO       0.147900
      2 O50          5.2580     0.9490     5.0110 os         1 TAO      -0.446000
      3 C48          4.0760     0.7330     4.2020 c6         1 TAO       0.156300
      4 C42          4.4080    -0.1490     2.9680 c6         1 TAO      -0.130400
      5 C36          3.1490    -0.5060     2.1490 c6         1 TAO       0.384300
      6 O43          2.1270    -1.0500     3.0060 os         1 TAO      -0.472000
      7 C49          1.7330    -0.2130     4.1150 c6         1 TAO       0.169300
      8 C52          0.5690    -0.9450     4.8270 c3         1 TAO      -0.091100
      9 C51          2.9400     0.0760     5.0470 c6         1 TAO       0.142300
     10 O54          2.5190     0.9430     6.1310 os         1 TAO      -0.455100
     11 C55          3.1680     0.9360     7.3380 c          1 TAO       0.604100
     12 O57          4.0010     0.1080     7.6760 o          1 TAO      -0.473000
     13 C56          2.5750     1.9670     8.2880 c3         1 TAO      -0.156100
     14 O30          2.6440     0.6470     1.4390 os         1 TAO      -0.476000
     15 C26          1.6720     0.4000     0.3960 c3         1 TAO       0.180300
     16 C31          2.4010     0.1220    -0.9770 c3         1 TAO      -0.156700
     17 C27          1.6500    -0.9270    -1.8110 c          1 TAO       0.596100
     18 O32          1.1930    -1.9590    -1.3430 o          1 TAO      -0.493000
     19 O23          1.7070    -0.6330    -3.1510 os         1 TAO      -0.456100
     20 C17          1.0920    -1.5140    -4.1130 c3         1 TAO       0.188300
     21 C22          1.9200    -2.8240    -4.1900 c3         1 TAO      -0.121100
     22 C12          1.0280    -0.7760    -5.4920 c3         1 TAO      -0.072700
     23 C16          2.4250    -0.4250    -6.0780 c3         1 TAO      -0.082100
     24 C9          -0.0060     0.4070    -5.5690 c3         1 TAO       0.190300
     25 O11         -1.3070    -0.1260    -5.2490 os         1 TAO      -0.466100
     26 C15         -2.0190    -0.8070    -6.2010 c          1 TAO       0.601100
     27 O21         -1.6700    -0.9560    -7.3630 o          1 TAO      -0.481000
     28 C20         -3.3450    -1.3000    -5.6450 c3         1 TAO      -0.157100
     29 C4           0.1640     1.6220    -4.6140 c3         1 TAO      -0.147700
     30 C2          -0.9860     2.6300    -4.8860 c          1 TAO       0.585100
     31 O1          -0.9820     3.2620    -5.9380 o          1 TAO      -0.492100
     32 C3          -2.1290     2.8290    -3.8600 cx         1 TAO      -0.019000
     33 O6          -3.4600     2.9250    -4.4370 op         1 TAO      -0.398000
     34 C5          -2.8690     4.1430    -3.9330 cx         1 TAO       0.094600
     35 C7          -2.0890     2.0950    -2.5100 c3         1 TAO      -0.059400
     36 C10         -0.9890     2.5700    -1.5040 c3         1 TAO      -0.049700
     37 C13         -1.4140     3.8450    -0.7320 c3         1 TAO      -0.089100
     38 C14         -0.5490     1.3720    -0.6020 c3         1 TAO       0.175300
     39 O18         -1.7010     0.9730     0.1710 os         1 TAO      -0.436000
     40 C24         -1.7880    -0.4060     0.5680 c6         1 TAO       0.387300
     41 O29         -2.0510    -1.1810    -0.6180 os         1 TAO      -0.493000
     42 C35         -2.0820    -2.5970    -0.3920 c6         1 TAO       0.184300
     43 C41         -2.2360    -3.2720    -1.7750 c3         1 TAO      -0.088100
     44 C40         -3.2520    -2.9280     0.5610 c6         1 TAO      -0.141400
     45 C34         -3.1080    -2.1380     1.8940 c6         1 TAO       0.172500
     46 N39         -4.2080    -2.4510     2.8700 n3         1 TAO      -0.726600
     47 C46         -5.5840    -2.1460     2.4030 c3         1 TAO       0.157100
     48 C47         -4.1100    -3.8030     3.4680 c3         1 TAO       0.157100
     49 C28         -2.9200    -0.6040     1.6180 c6         1 TAO       0.155300
     50 O33         -2.5640     0.0890     2.8450 os         1 TAO      -0.441100
     51 C38         -3.5080     0.6930     3.6280 c          1 TAO       0.614100
     52 O45         -4.6660     0.9000     3.2930 o          1 TAO      -0.487000
     53 C44         -2.8770     1.2920     4.8770 c3         1 TAO      -0.157100
     54 C19          0.6870     1.6270     0.3390 c3         1 TAO      -0.078700
     55 C25          0.2660     2.1380     1.7500 c3         1 TAO      -0.077100
     56 C8           1.5260     2.3620    -4.6850 c3         1 TAO      -0.086100
     57 C37          3.9060    -0.2700    -0.9380 c3         1 TAO      -0.077100
     58 H531         7.1060     1.9080     5.1900 h1         1 TAO       0.030367
     59 H532         6.7870     1.2130     3.5910 h1         1 TAO       0.030367
     60 H533         5.9540     2.7050     4.0980 h1         1 TAO       0.030367
     61 H48          3.7140     1.7100     3.8500 h1         1 TAO       0.057700
     62 H421         5.1180     0.3620     2.3070 hc         1 TAO       0.068700
     63 H422         4.8940    -1.0770     3.2960 hc         1 TAO       0.068700
     64 H36          3.4300    -1.2840     1.4270 h2         1 TAO       0.080700
     65 H49          1.3570     0.7420     3.7340 h1         1 TAO       0.057700
     66 H521        -0.2510    -1.1480     4.1280 hc         1 TAO       0.049700
     67 H522         0.8990    -1.9010     5.2490 hc         1 TAO       0.049700
     68 H523         0.1610    -0.3390     5.6440 hc         1 TAO       0.049700
     69 H51          3.2900    -0.8840     5.4550 h1         1 TAO       0.091700
     70 H561         2.9980     1.9040     9.2960 hc         1 TAO       0.067700
     71 H562         2.7020     2.9630     7.8500 hc         1 TAO       0.067700
     72 H563         1.4850     1.8550     8.2970 hc         1 TAO       0.067700
     73 H26          1.0910    -0.4870     0.6730 h1         1 TAO       0.070700
     74 H31          2.3980     1.0470    -1.5660 hc         1 TAO       0.076700
     75 H17          0.0660    -1.7630    -3.8090 h1         1 TAO       0.068700
     76 H221         1.7590    -3.4540    -3.3090 hc         1 TAO       0.050700
     77 H222         1.6250    -3.4160    -5.0640 hc         1 TAO       0.050700
     78 H223         2.9920    -2.6100    -4.2670 hc         1 TAO       0.050700
     79 H12          0.6370    -1.5240    -6.1910 hc         1 TAO       0.067700
     80 H161         2.9410    -1.3350    -6.4090 hc         1 TAO       0.041367
     81 H162         2.3300     0.2310    -6.9520 hc         1 TAO       0.041367
     82 H163         3.0730     0.0630    -5.3440 hc         1 TAO       0.041367
     83 H9           0.0030     0.7990    -6.5970 h1         1 TAO       0.084700
     84 H201        -3.9550    -1.8110    -6.3980 hc         1 TAO       0.070367
     85 H202        -3.1470    -1.9370    -4.7760 hc         1 TAO       0.070367
     86 H203        -3.8750    -0.4530    -5.1960 hc         1 TAO       0.070367
     87 H4           0.0690     1.2220    -3.6070 hc         1 TAO       0.082700
     88 H51A        -3.3490     4.5450    -3.0400 h1         1 TAO       0.080200
     89 H52         -2.5990     4.8760    -4.6930 h1         1 TAO       0.080200
     90 H71         -1.9770     1.0210    -2.7100 hc         1 TAO       0.078200
     91 H72         -3.0670     2.1710    -2.0170 hc         1 TAO       0.078200
     92 H10         -0.1040     2.8570    -2.0820 hc         1 TAO       0.043700
     93 H131        -1.7200     4.6390    -1.4210 hc         1 TAO       0.039033
     94 H132        -2.2510     3.6390    -0.0540 hc         1 TAO       0.039033
     95 H133        -0.5780     4.2450    -0.1480 hc         1 TAO       0.039033
     96 H14         -0.2870     0.5700    -1.2980 h1         1 TAO       0.043700
     97 H24         -0.8430    -0.7300     1.0200 h2         1 TAO       0.038700
     98 H35         -1.1270    -2.9150     0.0530 h1         1 TAO       0.048700
     99 H411        -1.3940    -3.0200    -2.4290 hc         1 TAO       0.045700
    100 H412        -2.2640    -4.3630    -1.6780 hc         1 TAO       0.045700
    101 H413        -3.1590    -2.9540    -2.2740 hc         1 TAO       0.045700
    102 H401        -4.1990    -2.6790     0.0650 hc         1 TAO       0.058200
    103 H402        -3.2670    -4.0090     0.7530 hc         1 TAO       0.058200
    104 H34         -2.1590    -2.4660     2.3470 h1         1 TAO       0.064700
    105 H461        -6.2940    -2.2100     3.2390 h1         1 TAO       0.033200
    106 H462        -5.6560    -1.1360     1.9820 h1         1 TAO       0.033200
    107 H463        -5.9070    -2.8590     1.6340 h1         1 TAO       0.033200
    108 H471        -4.8290    -3.9130     4.2910 h1         1 TAO       0.033200
    109 H472        -4.3210    -4.5840     2.7260 h1         1 TAO       0.033200
    110 H473        -3.1050    -3.9770     3.8760 h1         1 TAO       0.033200
    111 H28         -3.8360    -0.1760     1.1910 h1         1 TAO       0.095700
    112 H441        -3.5770     1.9130     5.4460 hc         1 TAO       0.067033
    113 H442        -2.4630     0.4790     5.4830 hc         1 TAO       0.067033
    114 H443        -1.9780     1.8490     4.5900 hc         1 TAO       0.067033
    115 H19          1.2600     2.4470    -0.1090 hc         1 TAO       0.056700
    116 H251         1.1300     2.5270     2.3010 hc         1 TAO       0.043700
    117 H252        -0.4660     2.9490     1.6920 hc         1 TAO       0.043700
    118 H253        -0.1880     1.3330     2.3360 hc         1 TAO       0.043700
    119 H81          1.4710     3.3180    -4.1490 hc         1 TAO       0.044700
    120 H82          2.3220     1.7820    -4.2070 hc         1 TAO       0.044700
    121 H83          1.8120     2.5720    -5.7230 hc         1 TAO       0.044700
    122 H371         4.3190    -0.2650    -1.9550 hc         1 TAO       0.045700
    123 H372         4.4940     0.4420    -0.3470 hc         1 TAO       0.045700
    124 H373         4.0520    -1.2800    -0.5400 hc         1 TAO       0.045700
@<TRIPOS>BOND
     1     1     2 1   
     2     1    58 1   
     3     1    59 1   
     4     1    60 1   
     5     2     3 1   
     6     3     4 1   
     7     3     9 1   
     8     3    61 1   
     9     4     5 1   
    10     4    62 1   
    11     4    63 1   
    12     5     6 1   
    13     5    14 1   
    14     5    64 1   
    15     6     7 1   
    16     7     8 1   
    17     7     9 1   
    18     7    65 1   
    19     8    66 1   
    20     8    67 1   
    21     8    68 1   
    22     9    10 1   
    23     9    69 1   
    24    10    11 1   
    25    11    12 2   
    26    11    13 1   
    27    13    70 1   
    28    13    71 1   
    29    13    72 1   
    30    14    15 1   
    31    15    16 1   
    32    15    54 1   
    33    15    73 1   
    34    16    17 1   
    35    16    57 1   
    36    16    74 1   
    37    17    18 2   
    38    17    19 1   
    39    19    20 1   
    40    20    21 1   
    41    20    22 1   
    42    20    75 1   
    43    21    76 1   
    44    21    77 1   
    45    21    78 1   
    46    22    23 1   
    47    22    24 1   
    48    22    79 1   
    49    23    80 1   
    50    23    81 1   
    51    23    82 1   
    52    24    25 1   
    53    24    29 1   
    54    24    83 1   
    55    25    26 1   
    56    26    27 2   
    57    26    28 1   
    58    28    84 1   
    59    28    85 1   
    60    28    86 1   
    61    29    30 1   
    62    29    56 1   
    63    29    87 1   
    64    30    31 2   
    65    30    32 1   
    66    32    33 1   
    67    32    34 1   
    68    32    35 1   
    69    33    34 1   
    70    34    88 1   
    71    34    89 1   
    72    35    36 1   
    73    35    90 1   
    74    35    91 1   
    75    36    37 1   
    76    36    38 1   
    77    36    92 1   
    78    37    93 1   
    79    37    94 1   
    80    37    95 1   
    81    38    39 1   
    82    38    54 1   
    83    38    96 1   
    84    39    40 1   
    85    40    41 1   
    86    40    49 1   
    87    40    97 1   
    88    41    42 1   
    89    42    43 1   
    90    42    44 1   
    91    42    98 1   
    92    43    99 1   
    93    43   100 1   
    94    43   101 1   
    95    44    45 1   
    96    44   102 1   
    97    44   103 1   
    98    45    46 1   
    99    45    49 1   
   100    45   104 1   
   101    46    47 1   
   102    46    48 1   
   103    47   105 1   
   104    47   106 1   
   105    47   107 1   
   106    48   108 1   
   107    48   109 1   
   108    48   110 1   
   109    49    50 1   
   110    49   111 1   
   111    50    51 1   
   112    51    52 2   
   113    51    53 1   
   114    53   112 1   
   115    53   113 1   
   116    53   114 1   
   117    54    55 1   
   118    54   115 1   
   119    55   116 1   
   120    55   117 1   
   121    55   118 1   
   122    56   119 1   
   123    56   120 1   
   124    56   121 1   
   125    57   122 1   
   126    57   123 1   
   127    57   124 1   
@<TRIPOS>SUBSTRUCTURE
     1 TAO         1 TEMP              0 ****  ****    0 ROOT
