@<TRIPOS>MOLECULE
TAQ
   22    23     1     0     0
SMALL
No Charge or Current Charge


@<TRIPOS>ATOM
      1 C6           0.0710    -0.0120     2.6120 ca         1 TAQ       0.249000
      2 N4          -0.3460    -0.0270     3.9180 nv         1 TAQ      -1.064000
      3 C1           1.4410    -0.0200     2.3090 ca         1 TAQ      -0.118000
      4 C2           1.8710    -0.0020     0.9700 ca         1 TAQ      -0.082000
      5 C3           0.9380     0.0240    -0.0830 ca         1 TAQ       0.065000
      6 N3           1.3510     0.0430    -1.3680 nb         1 TAQ      -0.277000
      7 C8           0.4000     0.0680    -2.3120 ca         1 TAQ       0.398900
      8 N2           0.8290     0.0840    -3.5940 nv         1 TAQ      -1.043900
      9 N1          -0.9240     0.0720    -2.1410 nb         1 TAQ      -0.332000
     10 C7          -1.3420     0.0530    -0.8720 ca         1 TAQ       0.422900
     11 C4          -0.4460     0.0290     0.2220 ca         1 TAQ      -0.175000
     12 C5          -0.8720     0.0120     1.5720 ca         1 TAQ      -0.138000
     13 NAA         -2.6970     0.0510    -0.7380 nv         1 TAQ      -1.070900
     14 H4N1         0.3300     0.0680     4.6750 hn         1 TAQ       0.440500
     15 H4N2        -1.3320     0.0910     4.1440 hn         1 TAQ       0.440500
     16 H1           2.1770    -0.0400     3.1080 ha         1 TAQ       0.114000
     17 H2           2.9360    -0.0070     0.7480 ha         1 TAQ       0.131000
     18 H2N1         0.1570    -0.1190    -4.3290 hn         1 TAQ       0.478500
     19 H2N2         1.8030    -0.1400    -3.7840 hn         1 TAQ       0.478500
     20 H5          -1.9290     0.0220     1.8200 ha         1 TAQ       0.101000
     21 HAA1        -3.2530    -0.1390    -1.5680 hn         1 TAQ       0.490500
     22 HAA2        -3.0990    -0.2280     0.1520 hn         1 TAQ       0.490500
@<TRIPOS>BOND
     1     1     2 1   
     2     1     3 ar  
     3     1    12 ar  
     4     2    14 1   
     5     2    15 1   
     6     3     4 ar  
     7     3    16 1   
     8     4     5 ar  
     9     4    17 1   
    10     5     6 ar  
    11     5    11 ar  
    12     6     7 ar  
    13     7     8 1   
    14     7     9 ar  
    15     8    18 1   
    16     8    19 1   
    17     9    10 ar  
    18    10    11 ar  
    19    10    13 1   
    20    11    12 ar  
    21    12    20 1   
    22    13    21 1   
    23    13    22 1   
@<TRIPOS>SUBSTRUCTURE
     1 TAQ         1 TEMP              0 ****  ****    0 ROOT
