@<TRIPOS>MOLECULE
TAQ
   22    23     1     0     0
SMALL
bcc


@<TRIPOS>ATOM
      1 C6           0.0430    -0.0480     2.6130 ca         1 TAQ       0.110600
      2 N4          -0.3400    -0.1280     3.9410 nv         1 TAQ      -0.815200
      3 C1           1.4170    -0.0590     2.2780 ca         1 TAQ      -0.136000
      4 C2           1.8380    -0.0310     0.9760 ca         1 TAQ      -0.165300
      5 C3           0.9120     0.0010    -0.0890 ca         1 TAQ       0.458600
      6 N3           1.3630     0.0340    -1.3690 nb         1 TAQ      -0.803000
      7 C8           0.4450     0.0710    -2.3040 ca         1 TAQ       0.924900
      8 N2           0.8470     0.1700    -3.6010 nv         1 TAQ      -0.933500
      9 N1          -0.8930     0.0520    -2.1210 nb         1 TAQ      -0.858000
     10 C7          -1.3490     0.0120    -0.8890 ca         1 TAQ       0.751200
     11 C4          -0.4550    -0.0000     0.2400 ca         1 TAQ      -0.305600
     12 C5          -0.8760    -0.0120     1.5820 ca         1 TAQ      -0.156000
     13 NAA         -2.6800     0.0060    -0.7170 nv         1 TAQ      -0.960500
     14 H4N1         0.3190     0.2610     4.5970 hn         1 TAQ       0.385300
     15 H4N2        -1.2750     0.1950     4.1370 hn         1 TAQ       0.385300
     16 H1           2.1520    -0.0880     3.0740 ha         1 TAQ       0.132000
     17 H2           2.8960    -0.0330     0.7460 ha         1 TAQ       0.149000
     18 H2N1         0.1840    -0.1100    -4.3030 hn         1 TAQ       0.423300
     19 H2N2         1.8030    -0.0740    -3.7970 hn         1 TAQ       0.423300
     20 H5          -1.9310     0.0140     1.8290 ha         1 TAQ       0.119000
     21 HAA1        -3.2620    -0.1150    -1.5290 hn         1 TAQ       0.435300
     22 HAA2        -3.0940    -0.2370     0.1650 hn         1 TAQ       0.435300
@<TRIPOS>BOND
     1     1     2 1   
     2     1     3 ar  
     3     1    12 ar  
     4     2    14 1   
     5     2    15 1   
     6     3     4 ar  
     7     3    16 1   
     8     4     5 ar  
     9     4    17 1   
    10     5     6 ar  
    11     5    11 ar  
    12     6     7 ar  
    13     7     8 1   
    14     7     9 ar  
    15     8    18 1   
    16     8    19 1   
    17     9    10 ar  
    18    10    11 ar  
    19    10    13 1   
    20    11    12 ar  
    21    12    20 1   
    22    13    21 1   
    23    13    22 1   
@<TRIPOS>SUBSTRUCTURE
     1 TAQ         1 TEMP              0 ****  ****    0 ROOT
