@<TRIPOS>MOLECULE
TAR
   14    13     1     0     0
SMALL
No Charge or Current Charge


@<TRIPOS>ATOM
      1 O1           2.7420    -0.5770    -0.2960 o          1 TAR      -0.758750
      2 O11          2.3070     1.4830     0.1470 o          1 TAR      -0.758750
      3 C1           1.9540     0.3530    -0.1650 c          1 TAR       0.699000
      4 C2           0.4590     0.1230    -0.6020 c3         1 TAR       0.035800
      5 O2           0.2930    -1.0830    -1.4030 oh         1 TAR      -0.699000
      6 C3          -0.4990     0.1140     0.6280 c3         1 TAR       0.035800
      7 O3          -0.2820    -1.0680     1.4520 oh         1 TAR      -0.699000
      8 C4          -2.0010     0.2700     0.1870 c          1 TAR       0.699000
      9 O4          -2.7480    -0.6910     0.3380 o          1 TAR      -0.758750
     10 O41         -2.4040     1.3770    -0.1480 o          1 TAR      -0.758750
     11 H2           0.1900     0.9940    -1.2150 h1         1 TAR       0.031700
     12 HO2          1.1070    -1.6100    -1.2170 ho         1 TAR       0.450000
     13 H3          -0.2680     1.0080     1.2250 h1         1 TAR       0.031700
     14 HO3         -1.0740    -1.6310     1.2780 ho         1 TAR       0.450000
@<TRIPOS>BOND
     1     1     3 1   
     2     2     3 1   
     3     3     4 1   
     4     4     5 1   
     5     4     6 1   
     6     4    11 1   
     7     5    12 1   
     8     6     7 1   
     9     6     8 1   
    10     6    13 1   
    11     7    14 1   
    12     8     9 1   
    13     8    10 1   
@<TRIPOS>SUBSTRUCTURE
     1 TAR         1 TEMP              0 ****  ****    0 ROOT
