@<TRIPOS>MOLECULE
TAR
   14    13     1     0     0
SMALL
bcc


@<TRIPOS>ATOM
      1 O1           2.5980    -0.7650    -0.5530 o          1 TAR      -0.864050
      2 O11          2.3060     1.1320     0.5920 o          1 TAR      -0.864050
      3 C1           1.9200     0.2010    -0.1330 c          1 TAR       0.909600
      4 C2           0.4470     0.2100    -0.5900 c3         1 TAR       0.012600
      5 O2           0.2080    -0.8910    -1.4280 oh         1 TAR      -0.636800
      6 C3          -0.4900     0.2010     0.6130 c3         1 TAR       0.012600
      7 O3          -0.2040    -0.8740     1.4710 oh         1 TAR      -0.636800
      8 C4          -1.9620     0.1190     0.1590 c          1 TAR       0.909600
      9 O4          -2.5980    -0.8650     0.6030 o          1 TAR      -0.864050
     10 O41         -2.3880     1.0170    -0.5840 o          1 TAR      -0.864050
     11 H2           0.2690     1.1480    -1.1360 h1         1 TAR       0.031700
     12 HO2          1.0660    -1.3540    -1.4090 ho         1 TAR       0.411000
     13 H3          -0.3540     1.1550     1.1420 h1         1 TAR       0.031700
     14 HO3         -1.0430    -1.3710     1.4620 ho         1 TAR       0.411000
@<TRIPOS>BOND
     1     1     3 1   
     2     2     3 1   
     3     3     4 1   
     4     4     5 1   
     5     4     6 1   
     6     4    11 1   
     7     5    12 1   
     8     6     7 1   
     9     6     8 1   
    10     6    13 1   
    11     7    14 1   
    12     8     9 1   
    13     8    10 1   
@<TRIPOS>SUBSTRUCTURE
     1 TAR         1 TEMP              0 ****  ****    0 ROOT
