@<TRIPOS>MOLECULE
TAT
   44    46     1     0     0
SMALL
abcg2


@<TRIPOS>ATOM
      1 N1          55.0320   -17.8160    54.4060 nb         1 TAT      -0.317000
      2 C2          54.6960   -16.5240    54.4860 ca         1 TAT       0.160900
      3 N3          55.3960   -15.4620    54.0940 nb         1 TAT      -0.166000
      4 C4          56.5730   -15.8060    53.5570 ca         1 TAT       0.147500
      5 C5          57.0530   -17.1060    53.4070 ca         1 TAT      -0.101600
      6 C6          56.2210   -18.1470    53.8650 ca         1 TAT       0.429900
      7 N6          56.5640   -19.4410    53.7820 nv         1 TAT      -1.090900
      8 N7          58.3090   -17.1020    52.8240 nc         1 TAT      -0.600100
      9 C8          58.5760   -15.8360    52.6330 cd         1 TAT       0.436700
     10 N9          57.5660   -14.9950    53.0450 na         1 TAT      -0.263300
     11 PA          56.6530    -8.8410    55.5260 p5         1 TAT       1.907300
     12 PB          58.7410    -9.6520    57.6450 p5         1 TAT       1.570800
     13 PG          57.2210    -8.3620    59.8820 p5         1 TAT       1.493800
     14 C1          57.6130   -13.5550    53.0060 c5         1 TAT       0.313300
     15 O1A         55.8530    -8.9030    59.2190 oh         1 TAT      -0.829400
     16 O1B         60.2090    -9.5280    57.4230 o          1 TAT      -0.881500
     17 S1G         55.6320    -7.3980    56.4440 s          1 TAT      -1.378000
     18 C7          56.4170   -12.8820    52.3350 c5         1 TAT       0.117300
     19 O2          56.5900   -12.9230    50.9350 oh         1 TAT      -0.720000
     20 O2A         56.9600    -8.6010    54.0780 o          1 TAT      -0.844500
     21 O2B         58.1450   -10.9570    58.0420 o          1 TAT      -0.881500
     22 O2G         57.1310    -6.8990    60.1760 o          1 TAT      -0.882500
     23 C3          56.4010   -11.4820    52.9830 c5         1 TAT       0.132300
     24 O3          57.0660   -10.5360    52.1710 oh         1 TAT      -0.779000
     25 O3A         58.0660    -9.1430    56.2300 os         1 TAT      -0.735800
     26 O3B         58.2950    -8.4650    58.6410 os         1 TAT      -0.736800
     27 O3G         57.6010    -9.3180    60.9630 o          1 TAT      -0.882500
     28 C9          57.1400   -11.7070    54.3210 c5         1 TAT       0.083300
     29 O4          57.6160   -13.0670    54.3330 os         1 TAT      -0.437000
     30 C10         56.2960   -11.5320    55.5690 c3         1 TAT       0.205600
     31 O5          55.7940   -10.1880    55.7340 os         1 TAT      -0.618400
     32 H1          53.7270   -16.3200    54.9310 h5         1 TAT       0.043100
     33 H2          55.9530   -20.1470    54.1590 hn         1 TAT       0.493000
     34 H3          57.4610   -19.7130    53.4190 hn         1 TAT       0.493000
     35 H4          59.4800   -15.4390    52.1970 h5         1 TAT       0.066800
     36 H5          58.5320   -13.2840    52.4750 h2         1 TAT       0.075700
     37 H7          55.6520    -8.4170    58.3820 ho         1 TAT       0.481000
     38 H8          55.5110   -13.4090    52.6360 h1         1 TAT       0.057700
     39 H9          55.7920   -12.5790    50.5140 ho         1 TAT       0.502000
     40 H11         55.3710   -11.1630    53.1660 h1         1 TAT       0.057700
     41 H12         57.0990    -9.7230    52.7250 ho         1 TAT       0.601000
     42 H14         58.0050   -11.0420    54.3510 h1         1 TAT       0.106700
     43 H15         55.4120   -12.1670    55.5090 h1         1 TAT       0.084200
     44 H16         56.8830   -11.7890    56.4490 h1         1 TAT       0.084200
@<TRIPOS>BOND
     1     1     2 ar  
     2     1     6 ar  
     3     2     3 ar  
     4     2    32 1   
     5     3     4 ar  
     6     4     5 ar  
     7     4    10 1   
     8     5     6 ar  
     9     5     8 1   
    10     6     7 1   
    11     7    33 1   
    12     7    34 1   
    13     8     9 2   
    14     9    10 1   
    15     9    35 1   
    16    10    14 1   
    17    11    17 1   
    18    11    20 1   
    19    11    25 1   
    20    11    31 1   
    21    12    16 1   
    22    12    21 1   
    23    12    25 1   
    24    12    26 1   
    25    13    15 1   
    26    13    22 1   
    27    13    26 1   
    28    13    27 1   
    29    14    18 1   
    30    14    29 1   
    31    14    36 1   
    32    15    37 1   
    33    18    19 1   
    34    18    23 1   
    35    18    38 1   
    36    19    39 1   
    37    23    24 1   
    38    23    28 1   
    39    23    40 1   
    40    24    41 1   
    41    28    29 1   
    42    28    30 1   
    43    28    42 1   
    44    30    31 1   
    45    30    43 1   
    46    30    44 1   
@<TRIPOS>SUBSTRUCTURE
     1 TAT         1 TEMP              0 ****  ****    0 ROOT
