@<TRIPOS>MOLECULE
TAT
   44    46     1     0     0
SMALL
No Charge or Current Charge


@<TRIPOS>ATOM
      1 N1          55.4220   -18.6180    53.8950 nb         1 TAT      -0.317000
      2 C2          55.0770   -17.4100    54.4010 ca         1 TAT       0.160900
      3 N3          55.6580   -16.2200    54.1190 nb         1 TAT      -0.166000
      4 C4          56.6850   -16.2550    53.2450 ca         1 TAT       0.147500
      5 C5          57.1120   -17.4280    52.6720 ca         1 TAT      -0.101600
      6 C6          56.4420   -18.6200    53.0250 ca         1 TAT       0.429900
      7 N6          56.7880   -19.8340    52.5190 nv         1 TAT      -1.090900
      8 N7          58.1830   -17.2400    51.8030 nc         1 TAT      -0.600100
      9 C8          58.3700   -15.9070    51.8790 cd         1 TAT       0.436700
     10 N9          57.4850   -15.2530    52.7510 na         1 TAT      -0.263300
     11 PA          56.8430    -9.2480    55.9970 p5         1 TAT       1.907300
     12 PB          57.7260    -9.1050    58.4470 p5         1 TAT       1.570800
     13 PG          57.4140    -6.6900    59.4910 p5         1 TAT       1.493800
     14 C1          57.4340   -13.8190    53.0150 c5         1 TAT       0.313300
     15 O1A         56.0370    -6.2600    58.8520 oh         1 TAT      -0.829400
     16 O1B         58.8030    -9.7090    59.2850 o          1 TAT      -0.881500
     17 S1G         55.7040    -7.6470    56.2590 s          1 TAT      -1.378000
     18 C7          56.1400   -13.0740    52.5750 c5         1 TAT       0.117300
     19 O2          56.0780   -12.7440    51.1830 oh         1 TAT      -0.720000
     20 O2A         57.3500    -9.2060    54.5910 o          1 TAT      -0.844500
     21 O2B         56.3780    -9.5630    58.8790 o          1 TAT      -0.881500
     22 O2G         58.2580    -5.4740    59.6550 o          1 TAT      -0.882500
     23 C3          56.2660   -11.7570    53.4040 c5         1 TAT       0.132300
     24 O3          56.8950   -10.7280    52.6140 oh         1 TAT      -0.779000
     25 O3A         58.0460    -9.4700    56.9670 os         1 TAT      -0.735800
     26 O3B         57.9280    -7.5580    58.3000 os         1 TAT      -0.736800
     27 O3G         57.2060    -7.3720    60.7980 o          1 TAT      -0.882500
     28 C9          57.1810   -12.1740    54.6210 c5         1 TAT       0.083300
     29 O4          57.4500   -13.5810    54.4300 os         1 TAT      -0.437000
     30 C10         56.5800   -11.9480    56.0400 c3         1 TAT       0.205600
     31 O5          56.0280   -10.6220    56.2260 os         1 TAT      -0.618400
     32 H1          54.2490   -17.3930    55.1060 h5         1 TAT       0.043100
     33 H2          56.4800   -20.6650    53.0170 hn         1 TAT       0.493000
     34 H3          57.6810   -19.8940    52.0340 hn         1 TAT       0.493000
     35 H4          59.1240   -15.3500    51.3350 h5         1 TAT       0.066800
     36 H5          58.3210   -13.3680    52.5510 h2         1 TAT       0.075700
     37 H7          56.1260    -6.7980    58.0190 ho         1 TAT       0.481000
     38 H8          55.2510   -13.6420    52.8830 h1         1 TAT       0.057700
     39 H9          56.3970   -11.8010    51.2000 ho         1 TAT       0.502000
     40 H11         55.2750   -11.4250    53.7460 h1         1 TAT       0.057700
     41 H12         57.1310    -9.9970    53.2860 ho         1 TAT       0.601000
     42 H14         58.1480   -11.6520    54.5710 h1         1 TAT       0.106700
     43 H15         55.7920   -12.6960    56.1960 h1         1 TAT       0.084200
     44 H16         57.3620   -12.1490    56.7850 h1         1 TAT       0.084200
@<TRIPOS>BOND
     1     1     2 ar  
     2     1     6 ar  
     3     2     3 ar  
     4     2    32 1   
     5     3     4 ar  
     6     4     5 ar  
     7     4    10 1   
     8     5     6 ar  
     9     5     8 1   
    10     6     7 1   
    11     7    33 1   
    12     7    34 1   
    13     8     9 2   
    14     9    10 1   
    15     9    35 1   
    16    10    14 1   
    17    11    17 1   
    18    11    20 1   
    19    11    25 1   
    20    11    31 1   
    21    12    16 1   
    22    12    21 1   
    23    12    25 1   
    24    12    26 1   
    25    13    15 1   
    26    13    22 1   
    27    13    26 1   
    28    13    27 1   
    29    14    18 1   
    30    14    29 1   
    31    14    36 1   
    32    15    37 1   
    33    18    19 1   
    34    18    23 1   
    35    18    38 1   
    36    19    39 1   
    37    23    24 1   
    38    23    28 1   
    39    23    40 1   
    40    24    41 1   
    41    28    29 1   
    42    28    30 1   
    43    28    42 1   
    44    30    31 1   
    45    30    43 1   
    46    30    44 1   
@<TRIPOS>SUBSTRUCTURE
     1 TAT         1 TEMP              0 ****  ****    0 ROOT
