@<TRIPOS>MOLECULE
TAU
   13    12     1     0     0
SMALL
abcg2


@<TRIPOS>ATOM
      1 C1           0.0910     0.4080     1.9030 c3         1 TAU       0.182800
      2 C2          -0.1550    -0.6470     0.8380 c3         1 TAU      -0.356400
      3 N1          -0.0070    -0.1920     3.2270 n8         1 TAU      -0.998200
      4 S           -0.0130    -0.0010    -0.8370 s6         1 TAU       1.323600
      5 O1          -1.0400     1.0550    -0.9520 o          1 TAU      -0.700200
      6 O2          -0.2680    -1.1530    -1.7240 o          1 TAU      -0.700200
      7 O3           1.3640     0.5220    -0.9470 o          1 TAU      -0.700200
      8 H1C1        -0.6010     1.2450     1.7480 h1         1 TAU       0.037700
      9 H1C2         1.1010     0.8050     1.7840 h1         1 TAU       0.037700
     10 H2C1         0.5630    -1.4640     0.9360 h1         1 TAU       0.069200
     11 H2C2        -1.1590    -1.0690     0.9330 h1         1 TAU       0.069200
     12 H1N1         0.2240     0.5050     3.9230 hn         1 TAU       0.369000
     13 H1N2        -0.9710    -0.4440     3.4090 hn         1 TAU       0.369000
@<TRIPOS>BOND
     1     1     2 1   
     2     1     3 1   
     3     1     8 1   
     4     1     9 1   
     5     2     4 1   
     6     2    10 1   
     7     2    11 1   
     8     3    12 1   
     9     3    13 1   
    10     4     5 1   
    11     4     6 1   
    12     4     7 1   
@<TRIPOS>SUBSTRUCTURE
     1 TAU         1 TEMP              0 ****  ****    0 ROOT
