@<TRIPOS>MOLECULE
TAU
   13    12     1     0     0
SMALL
No Charge or Current Charge


@<TRIPOS>ATOM
      1 C1           0.1290     0.4210     1.8830 c3         1 TAU       0.182800
      2 C2          -0.1470    -0.6510     0.8320 c3         1 TAU      -0.356400
      3 N1           0.0130    -0.1800     3.2190 n8         1 TAU      -0.998200
      4 S           -0.0160     0.0010    -0.8440 s6         1 TAU       1.323600
      5 O1          -1.0340     1.0620    -0.8920 o          1 TAU      -0.700200
      6 O2          -0.3130    -1.1640    -1.6890 o          1 TAU      -0.700200
      7 O3           1.3710     0.4800    -0.9330 o          1 TAU      -0.700200
      8 H1C1        -0.5980     1.2410     1.7960 h1         1 TAU       0.037700
      9 H1C2         1.1430     0.8300     1.7620 h1         1 TAU       0.037700
     10 H2C1         0.5790    -1.4670     0.9060 h1         1 TAU       0.069200
     11 H2C2        -1.1620    -1.0480     0.9330 h1         1 TAU       0.069200
     12 H1N1         0.1110     0.5590     3.9240 hn         1 TAU       0.369000
     13 H1N2        -0.9480    -0.5150     3.3440 hn         1 TAU       0.369000
@<TRIPOS>BOND
     1     1     2 1   
     2     1     3 1   
     3     1     8 1   
     4     1     9 1   
     5     2     4 1   
     6     2    10 1   
     7     2    11 1   
     8     3    12 1   
     9     3    13 1   
    10     4     5 1   
    11     4     6 1   
    12     4     7 1   
@<TRIPOS>SUBSTRUCTURE
     1 TAU         1 TEMP              0 ****  ****    0 ROOT
