@<TRIPOS>MOLECULE
TAV
   70    74     1     0     0
SMALL
No Charge or Current Charge


@<TRIPOS>ATOM
      1 C1           2.5930     0.4510    -0.7010 ca         1 TAV      -0.279500
      2 C2           2.3370    -0.3670     0.4170 ca         1 TAV       0.001000
      3 C3           2.7550    -1.7120     0.4190 ca         1 TAV      -0.052000
      4 C4           3.4300    -2.2400    -0.7040 ca         1 TAV       0.022000
      5 C5           3.6790    -1.4210    -1.8210 ca         1 TAV      -0.102000
      6 C6           3.2600    -0.0800    -1.8240 ca         1 TAV       0.004000
      7 C9           2.5030    -2.5350     1.5340 ca         1 TAV      -0.080000
      8 C10          3.8470    -3.5850    -0.7030 ca         1 TAV      -0.095000
      9 C13          3.5930    -4.4010     0.4120 ca         1 TAV      -0.112000
     10 C14          2.9220    -3.8760     1.5290 ca         1 TAV      -0.129000
     11 S18          2.0220     2.1500    -0.7130 sy         1 TAV       1.145600
     12 O19          2.6850     2.9070    -1.7740 o          1 TAV      -0.562000
     13 N20          0.4360     2.0370    -1.2390 nu         1 TAV      -0.894100
     14 C21         -1.9910     1.2880     1.4700 ca         1 TAV      -0.123000
     15 C22         -1.0160     1.9310     0.6890 ca         1 TAV      -0.107000
     16 C23         -0.5890     1.3870    -0.5400 ca         1 TAV       0.292000
     17 C24         -1.2010     0.1960    -0.9980 ca         1 TAV      -0.125600
     18 C25         -2.1560    -0.4660    -0.1980 ca         1 TAV      -0.056000
     19 C26         -2.5410     0.0750     1.0380 ca         1 TAV       0.052100
     20 C29         -0.8630    -0.3930    -2.3250 c          1 TAV       0.600700
     21 C32          1.4350     1.9050     6.5640 ca         1 TAV      -0.087000
     22 C33          0.0560     1.6990     6.7390 ca         1 TAV      -0.122000
     23 C34         -0.6540     0.8740     5.8460 ca         1 TAV       0.006000
     24 C35          0.0220     0.2520     4.7730 ca         1 TAV      -0.062000
     25 C36          1.4050     0.4620     4.6020 ca         1 TAV      -0.061000
     26 C37          2.1080     1.2870     5.4970 ca         1 TAV      -0.117000
     27 C41         -2.0350     0.6710     6.0170 ca         1 TAV      -0.126000
     28 C42         -0.6900    -0.5710     3.8790 ca         1 TAV       0.040000
     29 C45         -2.0760    -0.7730     4.0530 ca         1 TAV      -0.312500
     30 C46         -2.7470    -0.1470     5.1240 ca         1 TAV      -0.028000
     31 N49         -1.3550     0.2650    -3.4800 n          1 TAV      -0.330800
     32 O50         -0.1750    -1.4040    -2.4000 o          1 TAV      -0.606100
     33 O51         -3.4810    -0.5600     1.8080 os         1 TAV      -0.419800
     34 O52         -4.2020    -2.3240     3.5210 o          1 TAV      -0.536000
     35 O53         -2.0470    -2.6640     2.1550 o          1 TAV      -0.536000
     36 O54          1.9230     2.6550     0.6580 o          1 TAV      -0.562000
     37 C56         -2.2590     1.4410    -3.3510 c3         1 TAV       0.085300
     38 C57         -0.6550     0.0090    -4.7870 c3         1 TAV      -0.021300
     39 C61          0.8060     0.5510    -4.7360 c          1 TAV       0.712000
     40 O62          1.0630     1.4200    -3.9120 o          1 TAV      -0.742500
     41 O63          1.6560     0.0190    -5.4370 o          1 TAV      -0.742500
     42 O65         -3.6970    -0.1050    -6.0440 o          1 TAV      -0.757000
     43 O66         -2.3610    -1.4980    -6.9870 o          1 TAV      -0.757000
     44 C67         -1.3870     0.4690    -6.0920 c3         1 TAV      -0.197400
     45 H2           1.8070     0.0350     1.2770 ha         1 TAV       0.114000
     46 H5           4.1910    -1.8230    -2.6910 ha         1 TAV       0.117000
     47 H6           3.4500     0.5370    -2.7020 ha         1 TAV       0.166000
     48 H9           1.9850    -2.1400     2.4030 ha         1 TAV       0.093000
     49 H10          4.3660    -3.9980    -1.5650 ha         1 TAV       0.109000
     50 H13          3.9160    -5.4400     0.4100 ha         1 TAV       0.095000
     51 H14          2.7250    -4.5090     2.3920 ha         1 TAV       0.095000
     52 H20          0.5960     1.7620    -2.2180 hn         1 TAV       0.594000
     53 H21         -2.3040     1.7230     2.4160 ha         1 TAV       0.112000
     54 H22         -0.5910     2.8650     1.0440 ha         1 TAV       0.135000
     55 H25         -2.6090    -1.3920    -0.5450 ha         1 TAV       0.157000
     56 H36          1.9370    -0.0110     3.7810 ha         1 TAV       0.126000
     57 H37          3.1750     1.4480     5.3630 ha         1 TAV       0.115000
     58 H41         -2.5610     1.1500     6.8390 ha         1 TAV       0.107000
     59 H42         -0.1670    -1.0410     3.0480 ha         1 TAV       0.149000
     60 H46         -3.8180    -0.2870     5.2660 ha         1 TAV       0.132000
     61 H561        -2.8570     1.3800    -2.4350 h1         1 TAV       0.039033
     62 H562        -1.6650     2.3630    -3.3310 h1         1 TAV       0.039033
     63 H563        -2.9640     1.4900    -4.1860 h1         1 TAV       0.039033
     64 H57         -0.5360    -1.0780    -4.8780 h1         1 TAV       0.093700
     65 H671        -1.6900     1.5150    -5.9720 hc         1 TAV       0.032200
     66 H672        -0.6420     0.3400    -6.8860 hc         1 TAV       0.032200
     67 C64         -2.5830    -0.4480    -6.4030 c          1 TAV       0.710000
     68 S31         -2.9890    -1.7980     2.8790 sy         1 TAV       1.274200
     69 H32          1.9810     2.5430     7.2550 ha         1 TAV       0.104000
     70 H33         -0.4590     2.1810     7.5660 ha         1 TAV       0.106000
@<TRIPOS>BOND
     1     1     2 ar  
     2     1     6 ar  
     3     1    11 1   
     4     2     3 ar  
     5     2    45 1   
     6     3     4 ar  
     7     3     7 ar  
     8     4     5 ar  
     9     4     8 ar  
    10     5     6 ar  
    11     5    46 1   
    12     6    47 1   
    13     7    10 ar  
    14     7    48 1   
    15     8     9 ar  
    16     8    49 1   
    17     9    10 ar  
    18     9    50 1   
    19    10    51 1   
    20    11    12 2   
    21    11    13 1   
    22    11    36 2   
    23    13    16 1   
    24    13    52 1   
    25    14    15 ar  
    26    14    19 ar  
    27    14    53 1   
    28    15    16 ar  
    29    15    54 1   
    30    16    17 ar  
    31    17    18 ar  
    32    17    20 1   
    33    18    19 ar  
    34    18    55 1   
    35    19    33 1   
    36    20    31 1   
    37    20    32 2   
    38    21    22 ar  
    39    21    26 ar  
    40    21    69 1   
    41    22    23 ar  
    42    22    70 1   
    43    23    24 ar  
    44    23    27 ar  
    45    24    25 ar  
    46    24    28 ar  
    47    25    26 ar  
    48    25    56 1   
    49    26    57 1   
    50    27    30 ar  
    51    27    58 1   
    52    28    29 ar  
    53    28    59 1   
    54    29    30 ar  
    55    29    68 1   
    56    30    60 1   
    57    31    37 1   
    58    31    38 1   
    59    33    68 1   
    60    34    68 2   
    61    35    68 2   
    62    37    61 1   
    63    37    62 1   
    64    37    63 1   
    65    38    39 1   
    66    38    44 1   
    67    38    64 1   
    68    39    40 1   
    69    39    41 1   
    70    42    67 1   
    71    43    67 1   
    72    44    65 1   
    73    44    66 1   
    74    44    67 1   
@<TRIPOS>SUBSTRUCTURE
     1 TAV         1 TEMP              0 ****  ****    0 ROOT
