@<TRIPOS>MOLECULE
TAV
   70    74     1     0     0
SMALL
abcg2


@<TRIPOS>ATOM
      1 C1           2.4940     0.5070    -0.6140 ca         1 TAV      -0.279500
      2 C2           2.2120    -0.3750     0.3920 ca         1 TAV       0.001000
      3 C3           2.5530    -1.7360     0.2460 ca         1 TAV      -0.052000
      4 C4           3.1920    -2.1610    -0.9450 ca         1 TAV       0.022000
      5 C5           3.4710    -1.2120    -1.9560 ca         1 TAV      -0.102000
      6 C6           3.1240     0.0980    -1.8070 ca         1 TAV       0.004000
      7 C9           2.2760    -2.6830     1.2580 ca         1 TAV      -0.080000
      8 C10          3.5320    -3.5260    -1.0870 ca         1 TAV      -0.095000
      9 C13          3.2470    -4.4230    -0.0930 ca         1 TAV      -0.112000
     10 C14          2.6120    -3.9980     1.0930 ca         1 TAV      -0.129000
     11 S18          1.9410     2.1790    -0.4580 sy         1 TAV       1.145600
     12 O19          2.7580     3.0300    -1.3040 o          1 TAV      -0.562000
     13 N20          0.4180     2.1830    -1.1200 nu         1 TAV      -0.894100
     14 C21         -2.0320     1.3360     1.5160 ca         1 TAV      -0.123000
     15 C22         -1.0810     2.0180     0.7790 ca         1 TAV      -0.107000
     16 C23         -0.5930     1.4890    -0.4130 ca         1 TAV       0.292000
     17 C24         -1.1200     0.2850    -0.8920 ca         1 TAV      -0.125600
     18 C25         -2.0650    -0.4070    -0.1500 ca         1 TAV      -0.056000
     19 C26         -2.5060     0.1210     1.0490 ca         1 TAV       0.052100
     20 C29         -0.6210    -0.2940    -2.1840 c          1 TAV       0.600700
     21 C32          1.4490     1.8740     6.4330 ca         1 TAV      -0.087000
     22 C33          0.0840     1.8120     6.5200 ca         1 TAV      -0.122000
     23 C34         -0.6480     0.9450     5.6780 ca         1 TAV       0.006000
     24 C35          0.0550     0.1380     4.7460 ca         1 TAV      -0.062000
     25 C36          1.4650     0.2200     4.6820 ca         1 TAV      -0.061000
     26 C37          2.1460     1.0710     5.5060 ca         1 TAV      -0.117000
     27 C41         -2.0600     0.8630     5.7400 ca         1 TAV      -0.126000
     28 C42         -0.6750    -0.7160     3.8920 ca         1 TAV       0.040000
     29 C45         -2.0390    -0.7540     3.9810 ca         1 TAV      -0.312500
     30 C46         -2.7550     0.0330     4.9100 ca         1 TAV      -0.028000
     31 N49         -1.0400     0.3120    -3.3100 n          1 TAV      -0.330800
     32 O50          0.1440    -1.2440    -2.1520 o          1 TAV      -0.606100
     33 O51         -3.4650    -0.5570     1.7860 os         1 TAV      -0.419800
     34 O52         -4.1750    -2.1930     3.4030 o          1 TAV      -0.536000
     35 O53         -2.0580    -2.6020     2.1130 o          1 TAV      -0.536000
     36 O54          1.8250     2.4810     0.9600 o          1 TAV      -0.562000
     37 C56         -2.0520     1.3500    -3.3360 c3         1 TAV       0.085300
     38 C57         -0.3020     0.0820    -4.5420 c3         1 TAV      -0.021300
     39 C61          0.8150     1.1410    -4.7080 c          1 TAV       0.712000
     40 O62          1.0200     1.9370    -3.7590 o          1 TAV      -0.742500
     41 O63          1.4460     1.1110    -5.7750 o          1 TAV      -0.742500
     42 O65         -3.4450    -0.8210    -5.9210 o          1 TAV      -0.757000
     43 O66         -1.8450    -2.2410    -5.3010 o          1 TAV      -0.757000
     44 C67         -1.2120    -0.0010    -5.7610 c3         1 TAV      -0.197400
     45 H2           1.7300    -0.0410     1.3020 ha         1 TAV       0.114000
     46 H5           3.9600    -1.5420    -2.8650 ha         1 TAV       0.117000
     47 H6           3.3200     0.8110    -2.5940 ha         1 TAV       0.166000
     48 H9           1.7950    -2.3560     2.1720 ha         1 TAV       0.093000
     49 H10          4.0200    -3.8540    -1.9970 ha         1 TAV       0.109000
     50 H13          3.5100    -5.4650    -0.2130 ha         1 TAV       0.095000
     51 H14          2.3940    -4.7170     1.8710 ha         1 TAV       0.095000
     52 H20          0.4950     2.0260    -2.1580 hn         1 TAV       0.594000
     53 H21         -2.4080     1.7560     2.4400 ha         1 TAV       0.112000
     54 H22         -0.7210     2.9730     1.1310 ha         1 TAV       0.135000
     55 H25         -2.4670    -1.3420    -0.5180 ha         1 TAV       0.157000
     56 H36          2.0030    -0.4000     3.9750 ha         1 TAV       0.126000
     57 H37          3.2250     1.1330     5.4510 ha         1 TAV       0.115000
     58 H41         -2.5920     1.4720     6.4590 ha         1 TAV       0.107000
     59 H42         -0.1470    -1.3270     3.1710 ha         1 TAV       0.149000
     60 H46         -3.8330    -0.0190     4.9670 ha         1 TAV       0.132000
     61 H561        -2.5310     1.4550    -2.3680 h1         1 TAV       0.039033
     62 H562        -1.6310     2.3170    -3.6170 h1         1 TAV       0.039033
     63 H563        -2.8320     1.0930    -4.0520 h1         1 TAV       0.039033
     64 H57          0.1870    -0.8870    -4.4430 h1         1 TAV       0.093700
     65 H671        -1.6870     0.9610    -5.9720 hc         1 TAV       0.032200
     66 H672        -0.5690    -0.2140    -6.6190 hc         1 TAV       0.032200
     67 C64         -2.2640    -1.1170    -5.6450 c          1 TAV       0.710000
     68 S31         -2.9470    -1.7090     2.8210 sy         1 TAV       1.274200
     69 H32          2.0020     2.5420     7.0790 ha         1 TAV       0.104000
     70 H33         -0.4490     2.4270     7.2340 ha         1 TAV       0.106000
@<TRIPOS>BOND
     1     1     2 ar  
     2     1     6 ar  
     3     1    11 1   
     4     2     3 ar  
     5     2    45 1   
     6     3     4 ar  
     7     3     7 ar  
     8     4     5 ar  
     9     4     8 ar  
    10     5     6 ar  
    11     5    46 1   
    12     6    47 1   
    13     7    10 ar  
    14     7    48 1   
    15     8     9 ar  
    16     8    49 1   
    17     9    10 ar  
    18     9    50 1   
    19    10    51 1   
    20    11    12 2   
    21    11    13 1   
    22    11    36 2   
    23    13    16 1   
    24    13    52 1   
    25    14    15 ar  
    26    14    19 ar  
    27    14    53 1   
    28    15    16 ar  
    29    15    54 1   
    30    16    17 ar  
    31    17    18 ar  
    32    17    20 1   
    33    18    19 ar  
    34    18    55 1   
    35    19    33 1   
    36    20    31 1   
    37    20    32 2   
    38    21    22 ar  
    39    21    26 ar  
    40    21    69 1   
    41    22    23 ar  
    42    22    70 1   
    43    23    24 ar  
    44    23    27 ar  
    45    24    25 ar  
    46    24    28 ar  
    47    25    26 ar  
    48    25    56 1   
    49    26    57 1   
    50    27    30 ar  
    51    27    58 1   
    52    28    29 ar  
    53    28    59 1   
    54    29    30 ar  
    55    29    68 1   
    56    30    60 1   
    57    31    37 1   
    58    31    38 1   
    59    33    68 1   
    60    34    68 2   
    61    35    68 2   
    62    37    61 1   
    63    37    62 1   
    64    37    63 1   
    65    38    39 1   
    66    38    44 1   
    67    38    64 1   
    68    39    40 1   
    69    39    41 1   
    70    42    67 1   
    71    43    67 1   
    72    44    65 1   
    73    44    66 1   
    74    44    67 1   
@<TRIPOS>SUBSTRUCTURE
     1 TAV         1 TEMP              0 ****  ****    0 ROOT
