@<TRIPOS>MOLECULE
TAX
   58    60     1     0     0
SMALL
No Charge or Current Charge


@<TRIPOS>ATOM
      1 CA          -1.7430     2.7170    -0.0790 c3         1 TAX      -0.045200
      2 CB          -1.1850     3.1960     1.2780 c3         1 TAX      -0.086100
      3 CA1          5.0460     0.9200    -1.0320 c3         1 TAX       0.143600
      4 CB1          6.5180     0.7990    -0.5900 c3         1 TAX       0.093600
      5 C1           2.8580     0.4170    -0.0030 ca         1 TAX       0.096100
      6 C2           2.1600    -0.0550     1.1200 ca         1 TAX      -0.159000
      7 C3           0.7570    -0.1260     1.1070 ca         1 TAX      -0.060500
      8 C5           0.7360     0.7460    -1.1610 ca         1 TAX      -0.060500
      9 C6           2.1410     0.8170    -1.1510 ca         1 TAX      -0.159000
     10 C4           0.0370     0.2840    -0.0300 ca         1 TAX      -0.036800
     11 C7          -1.4520     0.1950    -0.0400 ce         1 TAX      -0.033400
     12 C8          -1.9260    -1.2200     0.0530 ca         1 TAX      -0.055800
     13 C9          -1.3950    -2.2080    -0.8020 ca         1 TAX      -0.097000
     14 C10         -1.8350    -3.5400    -0.7110 ca         1 TAX      -0.111000
     15 C11         -2.8060    -3.8970     0.2380 ca         1 TAX      -0.101000
     16 C12         -3.3350    -2.9210     1.0990 ca         1 TAX      -0.111000
     17 C13         -2.8950    -1.5900     1.0090 ca         1 TAX      -0.097000
     18 C14         -2.2870     1.2860    -0.0530 cf         1 TAX      -0.006400
     19 C15         -3.7670     1.2280    -0.1500 ca         1 TAX      -0.071800
     20 C16         -4.5890     2.0130     0.6890 ca         1 TAX      -0.093500
     21 C17         -5.9890     1.9440     0.5860 ca         1 TAX      -0.110500
     22 C18         -6.5860     1.0920    -0.3570 ca         1 TAX      -0.097000
     23 C19         -5.7790     0.3100    -1.1990 ca         1 TAX      -0.110500
     24 C20         -4.3790     0.3790    -1.0970 ca         1 TAX      -0.093500
     25 NI           6.8780    -0.5910    -0.0460 nx         1 TAX      -0.652000
     26 C21          6.8400    -1.6830    -1.1260 c3         1 TAX       0.072400
     27 C22          8.2130    -0.5840     0.7100 c3         1 TAX       0.072400
     28 HA1         -2.5190     3.4220    -0.4000 hc         1 TAX       0.051200
     29 HA2         -0.9540     2.8150    -0.8320 hc         1 TAX       0.051200
     30 HB1         -0.8500     4.2370     1.2060 hc         1 TAX       0.036367
     31 HB2         -1.9490     3.1350     2.0620 hc         1 TAX       0.036367
     32 HB3         -0.3300     2.5850     1.5870 hc         1 TAX       0.036367
     33 HA11         4.8810     0.3040    -1.9250 h1         1 TAX       0.073700
     34 HA12         4.8240     1.9660    -1.2820 h1         1 TAX       0.073700
     35 HB11         7.1750     1.0390    -1.4300 hx         1 TAX       0.106200
     36 HB12         6.6940     1.5330     0.2000 hx         1 TAX       0.106200
     37 H2           2.7090    -0.3690     2.0040 ha         1 TAX       0.117500
     38 H3           0.2250    -0.4950     1.9810 ha         1 TAX       0.133500
     39 H5           0.1880     1.0450    -2.0520 ha         1 TAX       0.133500
     40 H6           2.6490     1.1810    -2.0390 ha         1 TAX       0.117500
     41 H9          -0.6450    -1.9420    -1.5430 ha         1 TAX       0.113500
     42 H10         -1.4220    -4.2940    -1.3770 ha         1 TAX       0.116500
     43 H11         -3.1470    -4.9280     0.3080 ha         1 TAX       0.118000
     44 H12         -4.0850    -3.1960     1.8380 ha         1 TAX       0.116500
     45 H13         -3.3050    -0.8440     1.6850 ha         1 TAX       0.113500
     46 H16         -4.1480     2.6710     1.4320 ha         1 TAX       0.114500
     47 H17         -6.6120     2.5500     1.2410 ha         1 TAX       0.118000
     48 H18         -7.6700     1.0390    -0.4360 ha         1 TAX       0.119000
     49 H19         -6.2380    -0.3490    -1.9330 ha         1 TAX       0.118000
     50 H20         -3.7680    -0.2260    -1.7610 ha         1 TAX       0.114500
     51 HI           6.1260    -0.8220     0.6500 hn         1 TAX       0.520000
     52 H211         7.5880    -1.4660    -1.8920 hx         1 TAX       0.100700
     53 H212         7.0590    -2.6550    -0.6760 hx         1 TAX       0.100700
     54 H213         5.8490    -1.7160    -1.5870 hx         1 TAX       0.100700
     55 H221         8.1810     0.1580     1.5120 hx         1 TAX       0.100700
     56 H222         8.4000    -1.5720     1.1400 hx         1 TAX       0.100700
     57 H223         9.0220    -0.3340     0.0200 hx         1 TAX       0.100700
     58 OL           4.2340     0.4620     0.0680 os         1 TAX      -0.388100
@<TRIPOS>BOND
     1     1     2 1   
     2     1    18 1   
     3     1    28 1   
     4     1    29 1   
     5     2    30 1   
     6     2    31 1   
     7     2    32 1   
     8     3     4 1   
     9     3    33 1   
    10     3    34 1   
    11     3    58 1   
    12     4    25 1   
    13     4    35 1   
    14     4    36 1   
    15     5     6 ar  
    16     5     9 ar  
    17     5    58 1   
    18     6     7 ar  
    19     6    37 1   
    20     7    10 ar  
    21     7    38 1   
    22     8     9 ar  
    23     8    10 ar  
    24     8    39 1   
    25     9    40 1   
    26    10    11 1   
    27    11    12 1   
    28    11    18 2   
    29    12    13 ar  
    30    12    17 ar  
    31    13    14 ar  
    32    13    41 1   
    33    14    15 ar  
    34    14    42 1   
    35    15    16 ar  
    36    15    43 1   
    37    16    17 ar  
    38    16    44 1   
    39    17    45 1   
    40    18    19 1   
    41    19    20 ar  
    42    19    24 ar  
    43    20    21 ar  
    44    20    46 1   
    45    21    22 ar  
    46    21    47 1   
    47    22    23 ar  
    48    22    48 1   
    49    23    24 ar  
    50    23    49 1   
    51    24    50 1   
    52    25    26 1   
    53    25    27 1   
    54    25    51 1   
    55    26    52 1   
    56    26    53 1   
    57    26    54 1   
    58    27    55 1   
    59    27    56 1   
    60    27    57 1   
@<TRIPOS>SUBSTRUCTURE
     1 TAX         1 TEMP              0 ****  ****    0 ROOT
