@<TRIPOS>MOLECULE
TAX
   58    60     1     0     0
SMALL
bcc


@<TRIPOS>ATOM
      1 CA          -1.6410     2.6880    -0.0080 c3         1 TAX      -0.045200
      2 CB          -1.2030     3.0760     1.4030 c3         1 TAX      -0.086100
      3 CA1          4.9760     0.8840    -0.9060 c3         1 TAX       0.120400
      4 CB1          6.4270     0.8130    -0.4990 c3         1 TAX       0.121800
      5 C1           2.8630     0.3760     0.0640 ca         1 TAX       0.096100
      6 C2           2.1620    -0.1550     1.1470 ca         1 TAX      -0.177000
      7 C3           0.7830    -0.2130     1.1150 ca         1 TAX      -0.078500
      8 C5           0.7760     0.7740    -1.0560 ca         1 TAX      -0.078500
      9 C6           2.1650     0.8360    -1.0460 ca         1 TAX      -0.177000
     10 C4           0.0600     0.2670     0.0200 ca         1 TAX      -0.036800
     11 C7          -1.4230     0.1860     0.0020 ce         1 TAX      -0.033400
     12 C8          -1.9640    -1.1890     0.1380 ca         1 TAX      -0.055800
     13 C9          -1.4600    -2.2240    -0.6510 ca         1 TAX      -0.115000
     14 C10         -1.9510    -3.5160    -0.5280 ca         1 TAX      -0.129000
     15 C11         -2.9380    -3.8020     0.4060 ca         1 TAX      -0.119000
     16 C12         -3.4280    -2.7850     1.2160 ca         1 TAX      -0.129000
     17 C13         -2.9450    -1.4920     1.0830 ca         1 TAX      -0.115000
     18 C14         -2.2010     1.2810    -0.0900 cf         1 TAX      -0.006400
     19 C15         -3.6700     1.1820    -0.2600 ca         1 TAX      -0.071800
     20 C16         -4.5350     1.9280     0.5440 ca         1 TAX      -0.111500
     21 C17         -5.9100     1.8530     0.3740 ca         1 TAX      -0.128500
     22 C18         -6.4470     1.0480    -0.6220 ca         1 TAX      -0.115000
     23 C19         -5.5970     0.3210    -1.4460 ca         1 TAX      -0.128500
     24 C20         -4.2240     0.3880    -1.2650 ca         1 TAX      -0.111500
     25 NI           6.8580    -0.5540    -0.0810 nx         1 TAX      -0.681400
     26 C21          6.6630    -1.5770    -1.1390 c3         1 TAX       0.100600
     27 C22          8.2680    -0.5290     0.3830 c3         1 TAX       0.100600
     28 HA1         -2.4000     3.3920    -0.3550 hc         1 TAX       0.051200
     29 HA2         -0.7970     2.8060    -0.6860 hc         1 TAX       0.051200
     30 HB1         -0.8530     4.1090     1.4230 hc         1 TAX       0.036367
     31 HB2         -2.0210     2.9890     2.1190 hc         1 TAX       0.036367
     32 HB3         -0.3900     2.4410     1.7540 hc         1 TAX       0.036367
     33 HA11         4.7810     0.3060    -1.8150 h1         1 TAX       0.073700
     34 HA12         4.7530     1.9320    -1.1300 h1         1 TAX       0.073700
     35 HB11         7.0580     1.1170    -1.3330 hx         1 TAX       0.106200
     36 HB12         6.6220     1.4750     0.3430 hx         1 TAX       0.106200
     37 H2           2.7060    -0.5220     2.0090 ha         1 TAX       0.135500
     38 H3           0.2560    -0.6320     1.9640 ha         1 TAX       0.151500
     39 H5           0.2480     1.1290    -1.9330 ha         1 TAX       0.151500
     40 H6           2.6710     1.2410    -1.9120 ha         1 TAX       0.135500
     41 H9          -0.6830    -2.0160    -1.3770 ha         1 TAX       0.131500
     42 H10         -1.5580    -4.3010    -1.1620 ha         1 TAX       0.134500
     43 H11         -3.3170    -4.8110     0.5070 ha         1 TAX       0.136000
     44 H12         -4.1850    -2.9990     1.9590 ha         1 TAX       0.134500
     45 H13         -3.3310    -0.7090     1.7230 ha         1 TAX       0.131500
     46 H16         -4.1330     2.5640     1.3230 ha         1 TAX       0.132500
     47 H17         -6.5610     2.4290     1.0180 ha         1 TAX       0.136000
     48 H18         -7.5190     0.9940    -0.7610 ha         1 TAX       0.137000
     49 H19         -6.0050    -0.2950    -2.2370 ha         1 TAX       0.136000
     50 H20         -3.5700    -0.1770    -1.9170 ha         1 TAX       0.132500
     51 HI           6.2840    -0.8260     0.7190 hn         1 TAX       0.464800
     52 H211         7.1900    -1.2600    -2.0350 hx         1 TAX       0.100700
     53 H212         7.0650    -2.5200    -0.7840 hx         1 TAX       0.100700
     54 H213         5.6050    -1.6970    -1.3470 hx         1 TAX       0.100700
     55 H221         8.3650     0.2000     1.1810 hx         1 TAX       0.100700
     56 H222         8.5340    -1.5160     0.7480 hx         1 TAX       0.100700
     57 H223         8.9060    -0.2540    -0.4520 hx         1 TAX       0.100700
     58 OL           4.2110     0.4050     0.1790 os         1 TAX      -0.364900
@<TRIPOS>BOND
     1     1     2 1   
     2     1    18 1   
     3     1    28 1   
     4     1    29 1   
     5     2    30 1   
     6     2    31 1   
     7     2    32 1   
     8     3     4 1   
     9     3    33 1   
    10     3    34 1   
    11     3    58 1   
    12     4    25 1   
    13     4    35 1   
    14     4    36 1   
    15     5     6 ar  
    16     5     9 ar  
    17     5    58 1   
    18     6     7 ar  
    19     6    37 1   
    20     7    10 ar  
    21     7    38 1   
    22     8     9 ar  
    23     8    10 ar  
    24     8    39 1   
    25     9    40 1   
    26    10    11 1   
    27    11    12 1   
    28    11    18 2   
    29    12    13 ar  
    30    12    17 ar  
    31    13    14 ar  
    32    13    41 1   
    33    14    15 ar  
    34    14    42 1   
    35    15    16 ar  
    36    15    43 1   
    37    16    17 ar  
    38    16    44 1   
    39    17    45 1   
    40    18    19 1   
    41    19    20 ar  
    42    19    24 ar  
    43    20    21 ar  
    44    20    46 1   
    45    21    22 ar  
    46    21    47 1   
    47    22    23 ar  
    48    22    48 1   
    49    23    24 ar  
    50    23    49 1   
    51    24    50 1   
    52    25    26 1   
    53    25    27 1   
    54    25    51 1   
    55    26    52 1   
    56    26    53 1   
    57    26    54 1   
    58    27    55 1   
    59    27    56 1   
    60    27    57 1   
@<TRIPOS>SUBSTRUCTURE
     1 TAX         1 TEMP              0 ****  ****    0 ROOT
