@<TRIPOS>MOLECULE
TAY
   18    17     1     0     0
SMALL
bcc


@<TRIPOS>ATOM
      1 CAA          1.2560     1.3580    -0.0260 c3         1 TAY      -0.080433
      2 CAB          1.0160    -0.7960    -1.2590 c3         1 TAY      -0.080433
      3 CAC          1.0140    -0.7690     1.2530 c3         1 TAY      -0.080433
      4 NAD         -1.6460    -0.9860    -0.0050 nt         1 TAY      -0.678000
      5 OAE         -1.4810     1.2510    -0.0190 o          1 TAY      -0.606100
      6 CAF         -0.9380     0.1550    -0.0140 c          1 TAY       0.675100
      7 CAG          0.5850    -0.0130    -0.0120 c3         1 TAY      -0.127000
      8 HAA          0.9910     1.9330    -0.9130 hc         1 TAY       0.039478
      9 HAAA         0.9930     1.9500     0.8500 hc         1 TAY       0.039478
     10 HAAB         2.3400     1.2280    -0.0260 hc         1 TAY       0.039478
     11 HAB          2.1050    -0.8410    -1.3070 hc         1 TAY       0.039478
     12 HABA         0.6510    -1.8240    -1.2580 hc         1 TAY       0.039478
     13 HABB         0.6630    -0.3170    -2.1740 hc         1 TAY       0.039478
     14 HAC          0.6580    -0.2710     2.1560 hc         1 TAY       0.039478
     15 HACA         0.6480    -1.7970     1.2720 hc         1 TAY       0.039478
     16 HACB         2.1020    -0.8140     1.3050 hc         1 TAY       0.039478
     17 HNAD        -2.6530    -0.9590    -0.0120 hn         1 TAY       0.311000
     18 HNAA        -1.2140    -1.8930    -0.0090 hn         1 TAY       0.311000
@<TRIPOS>BOND
     1     1     7 1   
     2     1     8 1   
     3     1     9 1   
     4     1    10 1   
     5     2     7 1   
     6     2    11 1   
     7     2    12 1   
     8     2    13 1   
     9     3     7 1   
    10     3    14 1   
    11     3    15 1   
    12     3    16 1   
    13     4     6 1   
    14     4    17 1   
    15     4    18 1   
    16     5     6 2   
    17     6     7 1   
@<TRIPOS>SUBSTRUCTURE
     1 TAY         1 TEMP              0 ****  ****    0 ROOT
