@<TRIPOS>MOLECULE
TAY
   18    17     1     0     0
SMALL
No Charge or Current Charge


@<TRIPOS>ATOM
      1 CAA          1.2770     1.3870    -0.0250 c3         1 TAY      -0.080433
      2 CAB          1.0380    -0.8050    -1.2710 c3         1 TAY      -0.080433
      3 CAC          1.0340    -0.7800     1.2630 c3         1 TAY      -0.080433
      4 NAD         -1.6870    -1.0000    -0.0060 nt         1 TAY      -0.611000
      5 OAE         -1.5480     1.2150    -0.0270 o          1 TAY      -0.606100
      6 CAF         -0.9640     0.1430    -0.0160 c          1 TAY       0.608100
      7 CAG          0.5890    -0.0090    -0.0120 c3         1 TAY      -0.127000
      8 HAA          0.9940     1.9560    -0.9190 hc         1 TAY       0.039478
      9 HAAA         0.9920     1.9730     0.8570 hc         1 TAY       0.039478
     10 HAAB         2.3700     1.2870    -0.0230 hc         1 TAY       0.039478
     11 HAB          2.1310    -0.8910    -1.3110 hc         1 TAY       0.039478
     12 HABA         0.6240    -1.8210    -1.2750 hc         1 TAY       0.039478
     13 HABB         0.7050    -0.3010    -2.1870 hc         1 TAY       0.039478
     14 HAC          0.6990    -0.2590     2.1680 hc         1 TAY       0.039478
     15 HACA         0.6210    -1.7960     1.2850 hc         1 TAY       0.039478
     16 HACB         2.1270    -0.8650     1.3070 hc         1 TAY       0.039478
     17 HNAD        -2.6940    -0.9470    -0.0080 hn         1 TAY       0.311000
     18 HNAA        -1.2170    -1.8930     0.0030 hn         1 TAY       0.311000
@<TRIPOS>BOND
     1     1     7 1   
     2     1     8 1   
     3     1     9 1   
     4     1    10 1   
     5     2     7 1   
     6     2    11 1   
     7     2    12 1   
     8     2    13 1   
     9     3     7 1   
    10     3    14 1   
    11     3    15 1   
    12     3    16 1   
    13     4     6 1   
    14     4    17 1   
    15     4    18 1   
    16     5     6 2   
    17     6     7 1   
@<TRIPOS>SUBSTRUCTURE
     1 TAY         1 TEMP              0 ****  ****    0 ROOT
