@<TRIPOS>MOLECULE
TAZ
   31    33     1     0     0
SMALL
abcg2


@<TRIPOS>ATOM
      1 S1           1.4800     0.3210     0.2130 s6         1 TAZ       0.888000
      2 C2          -0.3730     0.0970     0.0870 c5         1 TAZ      -0.155000
      3 C3          -0.6650     0.7400    -1.2940 c5         1 TAZ      -0.049300
      4 C5           1.7620     0.4780    -1.5920 cy         1 TAZ      -0.110300
      5 C6           2.2060    -0.7580    -2.3730 cy         1 TAZ      -0.170400
      6 C7           0.7400    -0.8450    -2.7920 c          1 TAZ       0.568000
      7 C9          -2.0670     0.4890    -1.9210 c          1 TAZ       0.746000
      8 N4           0.4380     0.3460    -2.1500 nj         1 TAZ      -0.322800
      9 C20         -0.6890    -1.3890     0.1530 c3         1 TAZ      -0.078100
     10 C14         -1.0540     0.8900     1.2030 c3         1 TAZ       0.081600
     11 C19         -0.1790    -0.2770     4.4570 cc         1 TAZ       0.174900
     12 C18          0.1650     0.4970     3.3820 cd         1 TAZ      -0.218000
     13 N15         -0.8610     0.3390     2.5260 na         1 TAZ       0.124800
     14 N16         -1.7740    -0.4770     3.0340 nd         1 TAZ      -0.187800
     15 N17         -1.3720    -0.8530     4.1970 nc         1 TAZ      -0.381000
     16 O12          1.7730     1.6270     0.8090 o          1 TAZ      -0.534500
     17 O13          2.1190    -0.8650     0.7790 o          1 TAZ      -0.534500
     18 O8           0.0780    -1.6310    -3.4080 o          1 TAZ      -0.450000
     19 O10         -2.1020     0.5130    -3.1560 o          1 TAZ      -0.681500
     20 O11         -3.0070     0.3670    -1.1190 o          1 TAZ      -0.681500
     21 HC3         -0.5900     1.8290    -1.1760 h1         1 TAZ       0.063700
     22 HC51         2.2770     1.4240    -1.7620 h2         1 TAZ       0.115700
     23 HC61         2.9170    -0.5620    -3.1740 hc         1 TAZ       0.082700
     24 HC62         2.5520    -1.6070    -1.7850 hc         1 TAZ       0.082700
     25 H201        -0.3400    -1.8390     1.0800 hc         1 TAZ       0.061700
     26 H202        -1.7670    -1.5190     0.0980 hc         1 TAZ       0.061700
     27 H203        -0.2450    -1.9550    -0.6640 hc         1 TAZ       0.061700
     28 H141        -0.7390     1.9320     1.2040 h1         1 TAZ       0.112200
     29 H142        -2.1220     0.8670     0.9980 h1         1 TAZ       0.112200
     30 H191         0.3540    -0.4390     5.3790 h4         1 TAZ       0.037100
     31 H181         1.0110     1.1300     3.1840 h4         1 TAZ       0.181000
@<TRIPOS>BOND
     1     1     2 1   
     2     1     4 1   
     3     1    16 2   
     4     1    17 2   
     5     2     3 1   
     6     2     9 1   
     7     2    10 1   
     8     3     7 1   
     9     3     8 1   
    10     3    21 1   
    11     4     5 1   
    12     4     8 1   
    13     4    22 1   
    14     5     6 1   
    15     5    23 1   
    16     5    24 1   
    17     6     8 1   
    18     6    18 2   
    19     7    19 1   
    20     7    20 1   
    21     9    25 1   
    22     9    26 1   
    23     9    27 1   
    24    10    13 1   
    25    10    28 1   
    26    10    29 1   
    27    11    12 2   
    28    11    15 1   
    29    11    30 1   
    30    12    13 1   
    31    12    31 1   
    32    13    14 1   
    33    14    15 2   
@<TRIPOS>SUBSTRUCTURE
     1 TAZ         1 TEMP              0 ****  ****    0 ROOT
