@<TRIPOS>MOLECULE
TAZ
   31    33     1     0     0
SMALL
No Charge or Current Charge


@<TRIPOS>ATOM
      1 S1           1.5160     0.3240     0.2750 s6         1 TAZ       0.888000
      2 C2          -0.3630     0.0800     0.0610 c5         1 TAZ      -0.155000
      3 C3          -0.6260     0.8000    -1.3300 c5         1 TAZ      -0.049300
      4 C5           1.8660     0.4150    -1.5650 cy         1 TAZ      -0.110300
      5 C6           2.1840    -0.8500    -2.4510 cy         1 TAZ      -0.170400
      6 C7           0.7170    -0.7470    -2.9580 c          1 TAZ       0.568000
      7 C9          -2.0400     0.5610    -1.9850 c          1 TAZ       0.746000
      8 N4           0.5130     0.3760    -2.1430 nj         1 TAZ      -0.322800
      9 C20         -0.6660    -1.4590     0.0710 c3         1 TAZ      -0.078100
     10 C14         -1.1000     0.7880     1.2480 c3         1 TAZ       0.081600
     11 C19         -0.1780    -0.1020     4.6140 cc         1 TAZ       0.174900
     12 C18          0.0740     0.6740     3.5280 cd         1 TAZ      -0.218000
     13 N15         -0.8650     0.2610     2.6090 na         1 TAZ       0.124800
     14 N16         -1.6650    -0.7100     3.1570 nd         1 TAZ      -0.187800
     15 N17         -1.2320    -0.9340     4.3720 nc         1 TAZ      -0.381000
     16 O12          1.7780     1.6350     0.8850 o          1 TAZ      -0.534500
     17 O13          2.1340    -0.8730     0.8610 o          1 TAZ      -0.534500
     18 O8          -0.0110    -1.4230    -3.6690 o          1 TAZ      -0.450000
     19 O10         -2.1930     0.8600    -3.1620 o          1 TAZ      -0.681500
     20 O11         -2.9700     0.1430    -1.3100 o          1 TAZ      -0.681500
     21 HC3         -0.5370     1.8880    -1.2110 h1         1 TAZ       0.063700
     22 HC51         2.4340     1.3250    -1.7760 h2         1 TAZ       0.115700
     23 HC61         2.8990    -0.7080    -3.2670 hc         1 TAZ       0.082700
     24 HC62         2.3670    -1.7900    -1.9230 hc         1 TAZ       0.082700
     25 H201        -0.3050    -1.9390     0.9890 hc         1 TAZ       0.061700
     26 H202        -1.7400    -1.6670     0.0150 hc         1 TAZ       0.061700
     27 H203        -0.1890    -1.9850    -0.7610 hc         1 TAZ       0.061700
     28 H141        -0.8360     1.8530     1.2540 h1         1 TAZ       0.112200
     29 H142        -2.1810     0.7410     1.0680 h1         1 TAZ       0.112200
     30 H191         0.3290    -0.1160     5.5700 h4         1 TAZ       0.037100
     31 H181         0.8100     1.4480     3.3510 h4         1 TAZ       0.181000
@<TRIPOS>BOND
     1     1     2 1   
     2     1     4 1   
     3     1    16 2   
     4     1    17 2   
     5     2     3 1   
     6     2     9 1   
     7     2    10 1   
     8     3     7 1   
     9     3     8 1   
    10     3    21 1   
    11     4     5 1   
    12     4     8 1   
    13     4    22 1   
    14     5     6 1   
    15     5    23 1   
    16     5    24 1   
    17     6     8 1   
    18     6    18 2   
    19     7    19 1   
    20     7    20 1   
    21     9    25 1   
    22     9    26 1   
    23     9    27 1   
    24    10    13 1   
    25    10    28 1   
    26    10    29 1   
    27    11    12 2   
    28    11    15 1   
    29    11    30 1   
    30    12    13 1   
    31    12    31 1   
    32    13    14 1   
    33    14    15 2   
@<TRIPOS>SUBSTRUCTURE
     1 TAZ         1 TEMP              0 ****  ****    0 ROOT
