@<TRIPOS>MOLECULE
TB0
   15    14     1     0     0
SMALL
abcg2


@<TRIPOS>ATOM
      1 C           -2.2530    -0.0220     0.0210 c1         1 TB0       0.499000
      2 N           -1.0910    -0.0090     0.0170 n1         1 TB0      -0.927500
      3 C2           0.3460     0.0080     0.0090 c3         1 TB0       0.304500
      4 C4           0.8260     0.0110     1.4600 c3         1 TB0      -0.099100
      5 C3           0.8320    -1.2420    -0.7210 c3         1 TB0      -0.099100
      6 C1           0.8010     1.2740    -0.7160 c3         1 TB0      -0.099100
      7 H4           0.4830    -0.8770     1.9890 hc         1 TB0       0.047033
      8 H4A          1.9150     0.0210     1.4820 hc         1 TB0       0.047033
      9 H4B          0.4670     0.8930     1.9900 hc         1 TB0       0.047033
     10 H3           0.4950    -1.2490    -1.7570 hc         1 TB0       0.047033
     11 H3A          1.9220    -1.2620    -0.7180 hc         1 TB0       0.047033
     12 H3B          0.4740    -2.1470    -0.2310 hc         1 TB0       0.047033
     13 H1           0.4210     2.1680    -0.2210 hc         1 TB0       0.047033
     14 H1A          1.8900     1.3200    -0.7160 hc         1 TB0       0.047033
     15 H1B          0.4600     1.2770    -1.7510 hc         1 TB0       0.047033
@<TRIPOS>BOND
     1     1     2 3   
     2     2     3 1   
     3     3     4 1   
     4     3     5 1   
     5     3     6 1   
     6     4     7 1   
     7     4     8 1   
     8     4     9 1   
     9     5    10 1   
    10     5    11 1   
    11     5    12 1   
    12     6    13 1   
    13     6    14 1   
    14     6    15 1   
@<TRIPOS>SUBSTRUCTURE
     1 TB0         1 TEMP              0 ****  ****    0 ROOT
