@<TRIPOS>MOLECULE
TB0
   15    14     1     0     0
SMALL
No Charge or Current Charge


@<TRIPOS>ATOM
      1 C           -2.2500    -0.0220    -0.0230 c1         1 TB0       0.499000
      2 N           -1.0810    -0.0090     0.0210 n1         1 TB0      -0.927500
      3 C2           0.3600     0.0090     0.0130 c3         1 TB0       0.304500
      4 C4           0.8310     0.0120     1.4860 c3         1 TB0      -0.099100
      5 C3           0.8350    -1.2610    -0.7290 c3         1 TB0      -0.099100
      6 C1           0.8040     1.2930    -0.7240 c3         1 TB0      -0.099100
      7 H4           0.4760    -0.8820     2.0140 hc         1 TB0       0.047033
      8 H4A          1.9260     0.0250     1.5390 hc         1 TB0       0.047033
      9 H4B          0.4550     0.8940     2.0170 hc         1 TB0       0.047033
     10 H3           0.4630    -1.2770    -1.7610 hc         1 TB0       0.047033
     11 H3A          1.9300    -1.2990    -0.7640 hc         1 TB0       0.047033
     12 H3B          0.4810    -2.1680    -0.2240 hc         1 TB0       0.047033
     13 H1           0.4280     2.1890    -0.2150 hc         1 TB0       0.047033
     14 H1A          1.8980     1.3570    -0.7590 hc         1 TB0       0.047033
     15 H1B          0.4320     1.3040    -1.7550 hc         1 TB0       0.047033
@<TRIPOS>BOND
     1     1     2 3   
     2     2     3 1   
     3     3     4 1   
     4     3     5 1   
     5     3     6 1   
     6     4     7 1   
     7     4     8 1   
     8     4     9 1   
     9     5    10 1   
    10     5    11 1   
    11     5    12 1   
    12     6    13 1   
    13     6    14 1   
    14     6    15 1   
@<TRIPOS>SUBSTRUCTURE
     1 TB0         1 TEMP              0 ****  ****    0 ROOT
