@<TRIPOS>MOLECULE
TB1
   28    28     1     0     0
SMALL
No Charge or Current Charge


@<TRIPOS>ATOM
      1 C2           0.5440    -2.4560    -4.3650 ca         1 TB1      -0.092000
      2 C5           0.7270    -3.5960    -5.1670 ca         1 TB1      -0.136500
      3 C8           0.3990    -4.8680    -4.6690 ca         1 TB1      -0.145000
      4 C6          -0.1110    -5.0000    -3.3670 ca         1 TB1      -0.136500
      5 C3          -0.2950    -3.8600    -2.5630 ca         1 TB1      -0.092000
      6 C1           0.0300    -2.5810    -3.0580 ca         1 TB1      -0.041300
      7 C4          -0.1760    -1.3440    -2.1920 c3         1 TB1       0.216900
      8 O2           1.0380    -1.0760    -1.4640 os         1 TB1      -0.434000
      9 C11          0.9870     0.0840    -0.5770 c3         1 TB1       0.008300
     10 C9           0.9230     1.4690    -1.3160 c          1 TB1       0.689000
     11 O5           0.4730     2.4240    -0.6970 o          1 TB1      -0.757000
     12 O1           1.2380     1.5470    -2.4980 o          1 TB1      -0.757000
     13 C7           2.2150     0.0310     0.3890 c3         1 TB1       0.047500
     14 C10          1.8240    -0.7430     1.7170 c          1 TB1       0.720000
     15 O4           1.9770    -1.9580     1.7670 o          1 TB1      -0.760000
     16 O3           1.4940    -0.0820     2.6950 o          1 TB1      -0.760000
     17 N            3.4800    -0.4090    -0.3230 n8         1 TB1      -1.012200
     18 H2           0.8020    -1.4740    -4.7550 ha         1 TB1       0.135000
     19 H5           1.1240    -3.4930    -6.1750 ha         1 TB1       0.085000
     20 H8           0.5410    -5.7490    -5.2900 ha         1 TB1       0.077000
     21 H6          -0.3640    -5.9840    -2.9790 ha         1 TB1       0.085000
     22 H3          -0.6890    -3.9690    -1.5550 ha         1 TB1       0.135000
     23 H41         -0.4490    -0.4960    -2.8320 h1         1 TB1       0.020700
     24 H42         -1.0080    -1.5200    -1.4980 h1         1 TB1       0.020700
     25 H11          0.0810     0.0340     0.0410 h1         1 TB1       0.042700
     26 H7           2.3950     1.0650     0.7160 h1         1 TB1       0.059700
     27 HN1          3.4900     0.0290    -1.2510 hn         1 TB1       0.390000
     28 HN2          3.3580    -1.4030    -0.5500 hn         1 TB1       0.390000
@<TRIPOS>BOND
     1     1     2 ar  
     2     1     6 ar  
     3     1    18 1   
     4     2     3 ar  
     5     2    19 1   
     6     3     4 ar  
     7     3    20 1   
     8     4     5 ar  
     9     4    21 1   
    10     5     6 ar  
    11     5    22 1   
    12     6     7 1   
    13     7     8 1   
    14     7    23 1   
    15     7    24 1   
    16     8     9 1   
    17     9    10 1   
    18     9    13 1   
    19     9    25 1   
    20    10    11 1   
    21    10    12 1   
    22    13    14 1   
    23    13    17 1   
    24    13    26 1   
    25    14    15 1   
    26    14    16 1   
    27    17    27 1   
    28    17    28 1   
@<TRIPOS>SUBSTRUCTURE
     1 TB1         1 TEMP              0 ****  ****    0 ROOT
