@<TRIPOS>MOLECULE
TB1
   28    28     1     0     0
SMALL
bcc


@<TRIPOS>ATOM
      1 C2           0.8850    -2.4810    -3.7550 ca         1 TB1      -0.110000
      2 C5           1.1140    -3.4710    -4.6990 ca         1 TB1      -0.154500
      3 C8           0.3860    -4.6570    -4.6610 ca         1 TB1      -0.163000
      4 C6          -0.5710    -4.8440    -3.6750 ca         1 TB1      -0.154500
      5 C3          -0.7980    -3.8500    -2.7280 ca         1 TB1      -0.110000
      6 C1          -0.0770    -2.6620    -2.7610 ca         1 TB1      -0.041300
      7 C4          -0.3170    -1.5690    -1.7590 c3         1 TB1       0.193700
      8 O2           0.9060    -1.2240    -1.1660 os         1 TB1      -0.387600
      9 C11          0.9430     0.0660    -0.6080 c3         1 TB1      -0.014900
     10 C9           0.9040     1.2020    -1.6540 c          1 TB1       0.899600
     11 O5           0.5670     2.3190    -1.2080 o          1 TB1      -0.862300
     12 O1           1.2500     0.9400    -2.8220 o          1 TB1      -0.862300
     13 C7           2.2420     0.1620     0.2110 c3         1 TB1       0.047500
     14 C10          2.1810    -0.8640     1.3680 c          1 TB1       0.930600
     15 O4           3.0070    -1.7970     1.3620 o          1 TB1      -0.865300
     16 O3           1.2900    -0.6690     2.2180 o          1 TB1      -0.865300
     17 N            3.4550     0.0070    -0.5750 n8         1 TB1      -0.901800
     18 H2           1.4440    -1.5540    -3.7790 ha         1 TB1       0.153000
     19 H5           1.8610    -3.3210    -5.4670 ha         1 TB1       0.103000
     20 H8           0.5690    -5.4300    -5.3970 ha         1 TB1       0.095000
     21 H6          -1.1380    -5.7650    -3.6360 ha         1 TB1       0.103000
     22 H3          -1.5410    -4.0050    -1.9540 ha         1 TB1       0.153000
     23 H41         -0.7670    -0.7120    -2.2750 h1         1 TB1       0.020700
     24 H42         -1.0450    -1.8960    -1.0030 h1         1 TB1       0.020700
     25 H11          0.1050     0.2120     0.0890 h1         1 TB1       0.042700
     26 H7           2.2310     1.1600     0.6660 h1         1 TB1       0.059700
     27 HN1          3.2950     0.3060    -1.5300 hn         1 TB1       0.334800
     28 HN2          3.6670    -0.9820    -0.6200 hn         1 TB1       0.334800
@<TRIPOS>BOND
     1     1     2 ar  
     2     1     6 ar  
     3     1    18 1   
     4     2     3 ar  
     5     2    19 1   
     6     3     4 ar  
     7     3    20 1   
     8     4     5 ar  
     9     4    21 1   
    10     5     6 ar  
    11     5    22 1   
    12     6     7 1   
    13     7     8 1   
    14     7    23 1   
    15     7    24 1   
    16     8     9 1   
    17     9    10 1   
    18     9    13 1   
    19     9    25 1   
    20    10    11 1   
    21    10    12 1   
    22    13    14 1   
    23    13    17 1   
    24    13    26 1   
    25    14    15 1   
    26    14    16 1   
    27    17    27 1   
    28    17    28 1   
@<TRIPOS>SUBSTRUCTURE
     1 TB1         1 TEMP              0 ****  ****    0 ROOT
