@<TRIPOS>MOLECULE
TB2
   29    29     1     0     0
SMALL
abcg2


@<TRIPOS>ATOM
      1 C1          -3.7700     0.1790    -0.5670 c          1 TB2       0.577900
      2 O1          -4.6330    -0.6390    -0.7580 o          1 TB2      -0.513100
      3 C2          -3.0600     0.3950     0.7410 c3         1 TB2      -0.155100
      4 C3          -1.5740     0.2670     0.5350 ca         1 TB2      -0.088300
      5 C4          -0.7800     1.3790     0.2660 ca         1 TB2      -0.103500
      6 C5           0.5800     1.2440     0.0420 ca         1 TB2      -0.107000
      7 C6           1.2080    -0.0040     0.0790 ca         1 TB2      -0.058300
      8 C7           0.4040    -1.1110     0.3430 ca         1 TB2      -0.107000
      9 C8          -0.9610    -0.9790     0.5640 ca         1 TB2      -0.103500
     10 C9           2.7100    -0.1080    -0.1600 c3         1 TB2      -0.000700
     11 C10          3.4500     0.7740     0.8550 c3         1 TB2      -0.083100
     12 C11          3.2190    -1.5420    -0.0050 c3         1 TB2      -0.083100
     13 C12          3.0360     0.3700    -1.5810 c3         1 TB2      -0.083100
     14 H1          -3.4260     0.8440    -1.3800 h4         1 TB2      -0.013800
     15 H2          -3.3030     1.4070     1.0810 hc         1 TB2       0.072200
     16 H2A         -3.4290    -0.3120     1.4860 hc         1 TB2       0.072200
     17 H4          -1.2280     2.3660     0.2400 ha         1 TB2       0.112500
     18 H5           1.1590     2.1380    -0.1550 ha         1 TB2       0.113500
     19 H7           0.8330    -2.1030     0.3840 ha         1 TB2       0.113500
     20 H8          -1.5510    -1.8650     0.7690 ha         1 TB2       0.112500
     21 H10          3.2240     0.4700     1.8790 hc         1 TB2       0.035700
     22 H10A         4.5290     0.6920     0.7100 hc         1 TB2       0.035700
     23 H10B         3.1850     1.8270     0.7520 hc         1 TB2       0.035700
     24 H11          2.7600    -2.2210    -0.7260 hc         1 TB2       0.035700
     25 H11A         4.2970    -1.5710    -0.1720 hc         1 TB2       0.035700
     26 H11B         3.0320    -1.9350     0.9960 hc         1 TB2       0.035700
     27 H12          2.7550     1.4130    -1.7360 hc         1 TB2       0.035700
     28 H12A         4.1090     0.2900    -1.7680 hc         1 TB2       0.035700
     29 H12B         2.5180    -0.2310    -2.3300 hc         1 TB2       0.035700
@<TRIPOS>BOND
     1     1     2 2   
     2     1     3 1   
     3     1    14 1   
     4     3     4 1   
     5     3    15 1   
     6     3    16 1   
     7     4     5 ar  
     8     4     9 ar  
     9     5     6 ar  
    10     5    17 1   
    11     6     7 ar  
    12     6    18 1   
    13     7     8 ar  
    14     7    10 1   
    15     8     9 ar  
    16     8    19 1   
    17     9    20 1   
    18    10    11 1   
    19    10    12 1   
    20    10    13 1   
    21    11    21 1   
    22    11    22 1   
    23    11    23 1   
    24    12    24 1   
    25    12    25 1   
    26    12    26 1   
    27    13    27 1   
    28    13    28 1   
    29    13    29 1   
@<TRIPOS>SUBSTRUCTURE
     1 TB2         1 TEMP              0 ****  ****    0 ROOT
