@<TRIPOS>MOLECULE
TB2
   29    29     1     0     0
SMALL
No Charge or Current Charge


@<TRIPOS>ATOM
      1 C1          -3.8680     0.2640    -0.5770 c          1 TB2       0.577900
      2 O1          -4.0710    -0.8200    -1.1150 o          1 TB2      -0.513100
      3 C2          -3.0940     0.4210     0.7350 c3         1 TB2      -0.155100
      4 C3          -1.5930     0.2690     0.5110 ca         1 TB2      -0.088300
      5 C4          -0.8040     1.3870     0.1940 ca         1 TB2      -0.103500
      6 C5           0.5780     1.2460    -0.0150 ca         1 TB2      -0.107000
      7 C6           1.2120    -0.0150     0.0870 ca         1 TB2      -0.058300
      8 C7           0.4020    -1.1340     0.4060 ca         1 TB2      -0.107000
      9 C8          -0.9810    -0.9910     0.6150 ca         1 TB2      -0.103500
     10 C9           2.7420    -0.1250    -0.1520 c3         1 TB2      -0.000700
     11 C10          3.4870     0.7670     0.8770 c3         1 TB2      -0.083100
     12 C11          3.2800    -1.5770    -0.0040 c3         1 TB2      -0.083100
     13 C12          3.0730     0.3610    -1.5900 c3         1 TB2      -0.083100
     14 H1          -4.2430     1.2090    -1.0280 h4         1 TB2      -0.013800
     15 H2          -3.3020     1.4180     1.1400 hc         1 TB2       0.072200
     16 H2A         -3.4440    -0.3400     1.4420 hc         1 TB2       0.072200
     17 H4          -1.2590     2.3710     0.1080 ha         1 TB2       0.112500
     18 H5           1.1560     2.1340    -0.2580 ha         1 TB2       0.113500
     19 H7           0.8220    -2.1310     0.4990 ha         1 TB2       0.113500
     20 H8          -1.5780    -1.8670     0.8570 ha         1 TB2       0.112500
     21 H10          3.2380     0.4650     1.9020 hc         1 TB2       0.035700
     22 H10A         4.5740     0.6840     0.7540 hc         1 TB2       0.035700
     23 H10B         3.2230     1.8250     0.7630 hc         1 TB2       0.035700
     24 H11          2.8070    -2.2500    -0.7280 hc         1 TB2       0.035700
     25 H11A         4.3620    -1.6130    -0.1790 hc         1 TB2       0.035700
     26 H11B         3.0980    -1.9650     1.0060 hc         1 TB2       0.035700
     27 H12          2.8030     1.4130    -1.7340 hc         1 TB2       0.035700
     28 H12A         4.1450     0.2630    -1.8000 hc         1 TB2       0.035700
     29 H12B         2.5260    -0.2330    -2.3330 hc         1 TB2       0.035700
@<TRIPOS>BOND
     1     1     2 2   
     2     1     3 1   
     3     1    14 1   
     4     3     4 1   
     5     3    15 1   
     6     3    16 1   
     7     4     5 ar  
     8     4     9 ar  
     9     5     6 ar  
    10     5    17 1   
    11     6     7 ar  
    12     6    18 1   
    13     7     8 ar  
    14     7    10 1   
    15     8     9 ar  
    16     8    19 1   
    17     9    20 1   
    18    10    11 1   
    19    10    12 1   
    20    10    13 1   
    21    11    21 1   
    22    11    22 1   
    23    11    23 1   
    24    12    24 1   
    25    12    25 1   
    26    12    26 1   
    27    13    27 1   
    28    13    28 1   
    29    13    29 1   
@<TRIPOS>SUBSTRUCTURE
     1 TB2         1 TEMP              0 ****  ****    0 ROOT
