@<TRIPOS>MOLECULE
TB3
   22    22     1     0     0
SMALL
No Charge or Current Charge


@<TRIPOS>ATOM
      1 N3          -6.0290     7.3610   -19.7380 ns         1 TB3      -0.156000
      2 C4          -3.7350     7.0560   -20.6830 ca         1 TB3      -0.145000
      3 C5          -4.7250     7.8090   -23.2040 ca         1 TB3      -0.048000
      4 C7          -5.8980     7.0500   -18.3920 c          1 TB3       0.623300
      5 C8          -2.8750     7.1020   -21.7950 ca         1 TB3      -0.050000
      6 C10         -7.2010     7.1770   -17.6530 ce         1 TB3      -0.379200
      7 C13         -7.5290     6.9700   -16.3260 cf         1 TB3      -0.118200
      8 C1          -5.1040     7.3870   -20.8200 ca         1 TB3       0.044000
      9 C2          -5.5870     7.7640   -22.0950 ca         1 TB3       0.035000
     10 Cl6         -7.2850     8.1870   -22.3260 cl         1 TB3      -0.228000
     11 C9          -3.3700     7.4790   -23.0530 ca         1 TB3      -0.059900
     12 O11         -4.8430     6.7150   -17.8790 o          1 TB3      -0.545100
     13 Br12        -2.1980     7.5410   -24.5620 br         1 TB3      -0.135100
     14 C14         -6.7150     6.5430   -15.1290 c          1 TB3       0.706200
     15 O15         -7.3170     6.4510   -14.0690 o          1 TB3      -0.708000
     16 O16         -5.5230     6.3060   -15.2260 o          1 TB3      -0.708000
     17 H1          -6.9680     7.6210   -20.0080 hn         1 TB3       0.156000
     18 H4          -1.8240     6.8460   -21.6800 ha         1 TB3       0.128000
     19 H5          -8.0280     7.4890   -18.2900 ha         1 TB3       0.139000
     20 H6          -8.5730     7.1420   -16.0690 ha         1 TB3       0.147000
     21 H2          -3.3150     6.7600   -19.7280 ha         1 TB3       0.172000
     22 H3          -5.1100     8.1010   -24.1780 ha         1 TB3       0.130000
@<TRIPOS>BOND
     1     1     4 1   
     2     1     8 1   
     3     1    17 1   
     4     2     5 ar  
     5     2     8 ar  
     6     2    21 1   
     7     3     9 ar  
     8     3    11 ar  
     9     3    22 1   
    10     4     6 1   
    11     4    12 2   
    12     5    11 ar  
    13     5    18 1   
    14     6     7 2   
    15     6    19 1   
    16     7    14 1   
    17     7    20 1   
    18     8     9 ar  
    19     9    10 1   
    20    11    13 1   
    21    14    15 1   
    22    14    16 1   
@<TRIPOS>SUBSTRUCTURE
     1 TB3         1 TEMP              0 ****  ****    0 ROOT
