@<TRIPOS>MOLECULE
TB3
   22    22     1     0     0
SMALL
abcg2


@<TRIPOS>ATOM
      1 N3          -6.1770     7.4050   -19.7800 ns         1 TB3      -0.156000
      2 C4          -3.9030     6.9270   -20.5940 ca         1 TB3      -0.145000
      3 C5          -4.6630     7.8050   -23.1260 ca         1 TB3      -0.048000
      4 C7          -6.0470     7.1050   -18.4410 c          1 TB3       0.623300
      5 C8          -2.9880     6.9150   -21.6370 ca         1 TB3      -0.050000
      6 C10         -7.3140     7.2590   -17.7010 ce         1 TB3      -0.379200
      7 C13         -7.4470     7.0510   -16.3870 cf         1 TB3      -0.118200
      8 C1          -5.2160     7.3770   -20.7850 ca         1 TB3       0.044000
      9 C2          -5.5660     7.8120   -22.0760 ca         1 TB3       0.035000
     10 CL6         -7.1870     8.3870   -22.3920 cl         1 TB3      -0.228000
     11 C9          -3.3730     7.3530   -22.8940 ca         1 TB3      -0.059900
     12 O11         -4.9890     6.7520   -17.9310 o          1 TB3      -0.545100
     13 BR12        -2.1170     7.3380   -24.3350 br         1 TB3      -0.135100
     14 C14         -6.3990     6.6360   -15.3780 c          1 TB3       0.706200
     15 O15         -6.3020     5.4060   -15.1620 o          1 TB3      -0.708000
     16 O16         -5.7970     7.5680   -14.7970 o          1 TB3      -0.708000
     17 H1          -7.0940     7.7060   -20.0750 hn         1 TB3       0.156000
     18 H4          -1.9820     6.5610   -21.4600 ha         1 TB3       0.128000
     19 H5          -8.1820     7.5620   -18.2770 ha         1 TB3       0.139000
     20 H6          -8.4340     7.1970   -15.9550 ha         1 TB3       0.147000
     21 H2          -3.6080     6.5870   -19.6160 ha         1 TB3       0.172000
     22 H3          -4.9710     8.1480   -24.1030 ha         1 TB3       0.130000
@<TRIPOS>BOND
     1     1     4 1   
     2     1     8 1   
     3     1    17 1   
     4     2     5 ar  
     5     2     8 ar  
     6     2    21 1   
     7     3     9 ar  
     8     3    11 ar  
     9     3    22 1   
    10     4     6 1   
    11     4    12 2   
    12     5    11 ar  
    13     5    18 1   
    14     6     7 2   
    15     6    19 1   
    16     7    14 1   
    17     7    20 1   
    18     8     9 ar  
    19     9    10 1   
    20    11    13 1   
    21    14    15 1   
    22    14    16 1   
@<TRIPOS>SUBSTRUCTURE
     1 TB3         1 TEMP              0 ****  ****    0 ROOT
