@<TRIPOS>MOLECULE
TB4
   42    44     1     0     0
SMALL
No Charge or Current Charge


@<TRIPOS>ATOM
      1 C15        133.7510   133.7520   138.6730 ca         1 TB4      -0.172500
      2 C16        132.6050   134.0590   137.9250 ca         1 TB4       0.143100
      3 C17        130.2200   133.6040   137.4940 c3         1 TB4       0.216900
      4 C20        128.9820   131.3870   137.4860 ca         1 TB4      -0.064000
      5 C19        128.3340   133.0610   139.1260 ca         1 TB4       0.191000
      6 C18        129.1550   132.6680   138.0480 ca         1 TB4      -0.132300
      7 C21        127.3550   132.1910   139.6310 ca         1 TB4      -0.153000
      8 C22        128.0010   130.5160   137.9920 ca         1 TB4      -0.131000
      9 C14        132.6760   135.0560   136.9280 ca         1 TB4      -0.172500
     10 C13        134.9610   134.4270   138.4360 ca         1 TB4      -0.057000
     11 C12        133.8870   135.7300   136.6920 ca         1 TB4      -0.057000
     12 C11        137.7190   139.3250   135.6430 c          1 TB4       0.602100
     13 C10        135.0430   135.4230   137.4420 ca         1 TB4      -0.123300
     14 C06        136.3700   136.1420   137.1970 c5         1 TB4       0.218800
     15 C07        136.9530   135.6250   135.8560 c5         1 TB4      -0.072400
     16 C08        137.5970   137.9460   136.4090 c5         1 TB4       0.085500
     17 C09        137.9760   136.7440   135.4750 c5         1 TB4      -0.070400
     18 C23        127.1860   130.9170   139.0640 ca         1 TB4      -0.074000
     19 N04        136.2450   137.5800   136.9340 n7         1 TB4      -0.838400
     20 O02        136.8390   140.1660   135.5210 o          1 TB4      -0.579100
     21 O03        131.4480   133.3630   138.2030 os         1 TB4      -0.350100
     22 H1         133.7020   132.9850   139.4420 ha         1 TB4       0.122500
     23 H2         129.9000   134.6480   137.6140 h1         1 TB4       0.049200
     24 H3         130.3510   133.4120   136.4210 h1         1 TB4       0.049200
     25 H4         129.6100   131.0650   136.6570 ha         1 TB4       0.119000
     26 H5         126.7280   132.5070   140.4620 ha         1 TB4       0.134000
     27 H6         127.8730   129.5290   137.5530 ha         1 TB4       0.120000
     28 H7         131.8100   135.3200   136.3290 ha         1 TB4       0.122500
     29 H8         135.8400   134.1730   139.0260 ha         1 TB4       0.121000
     30 H9         133.9290   136.4970   135.9210 ha         1 TB4       0.121000
     31 H10        137.0740   135.9670   138.0250 h1         1 TB4       0.020700
     32 H11        136.1800   135.5340   135.0840 hc         1 TB4       0.055200
     33 H12        137.4230   134.6410   135.9610 hc         1 TB4       0.055200
     34 H13        138.3060   137.9810   137.2480 h1         1 TB4       0.019700
     35 H14        137.8880   136.9960   134.4120 hc         1 TB4       0.052700
     36 H15        139.0110   136.4250   135.6440 hc         1 TB4       0.052700
     37 H16        126.4270   130.2410   139.4550 ha         1 TB4       0.118000
     38 H17        136.0370   138.0890   137.8010 hn         1 TB4       0.422000
     39 N05        138.9340   139.5610   135.0920 nt         1 TB4      -0.618000
     40 F01        128.4810   134.2830   139.6870 f          1 TB4      -0.178000
     41 H19        139.0900   140.4230   134.5890 hn         1 TB4       0.313500
     42 H20        139.6740   138.8810   135.1870 hn         1 TB4       0.313500
@<TRIPOS>BOND
     1     1     2 ar  
     2     1    10 ar  
     3     1    22 1   
     4     2     9 ar  
     5     2    21 1   
     6     3     6 1   
     7     3    21 1   
     8     3    23 1   
     9     3    24 1   
    10     4     6 ar  
    11     4     8 ar  
    12     4    25 1   
    13     5     6 ar  
    14     5     7 ar  
    15     5    40 1   
    16     7    18 ar  
    17     7    26 1   
    18     8    18 ar  
    19     8    27 1   
    20     9    11 ar  
    21     9    28 1   
    22    10    13 ar  
    23    10    29 1   
    24    11    13 ar  
    25    11    30 1   
    26    12    16 1   
    27    12    20 2   
    28    12    39 1   
    29    13    14 1   
    30    14    15 1   
    31    14    19 1   
    32    14    31 1   
    33    15    17 1   
    34    15    32 1   
    35    15    33 1   
    36    16    17 1   
    37    16    19 1   
    38    16    34 1   
    39    17    35 1   
    40    17    36 1   
    41    18    37 1   
    42    19    38 1   
    43    39    41 1   
    44    39    42 1   
@<TRIPOS>SUBSTRUCTURE
     1 TB4         1 TEMP              0 ****  ****    0 ROOT
