@<TRIPOS>MOLECULE
TB4
   42    44     1     0     0
SMALL
abcg2


@<TRIPOS>ATOM
      1 C15        133.7930   133.6650   138.6090 ca         1 TB4      -0.172500
      2 C16        132.6790   133.8950   137.8000 ca         1 TB4       0.143100
      3 C17        130.3630   133.4380   137.3510 c3         1 TB4       0.216900
      4 C20        128.7810   131.4680   137.4710 ca         1 TB4      -0.064000
      5 C19        128.6230   133.1520   139.1390 ca         1 TB4       0.191000
      6 C18        129.2420   132.6780   137.9880 ca         1 TB4      -0.132300
      7 C21        127.5910   132.4880   139.7730 ca         1 TB4      -0.153000
      8 C22        127.7440   130.7720   138.0840 ca         1 TB4      -0.131000
      9 C14        132.7710   134.8030   136.7450 ca         1 TB4      -0.172500
     10 C13        134.9770   134.3450   138.3680 ca         1 TB4      -0.057000
     11 C12        133.9700   135.4730   136.5180 ca         1 TB4      -0.057000
     12 C11        137.4470   139.2250   135.6430 c          1 TB4       0.602100
     13 C10        135.0880   135.2610   137.3200 ca         1 TB4      -0.123300
     14 C06        136.3910   135.9690   137.0570 c5         1 TB4       0.218800
     15 C07        137.1290   135.5330   135.7780 c5         1 TB4      -0.072400
     16 C08        137.5240   137.8790   136.3570 c5         1 TB4       0.085500
     17 C09        137.9960   136.7520   135.3980 c5         1 TB4      -0.070400
     18 C23        127.1520   131.2820   139.2340 ca         1 TB4      -0.074000
     19 N04        136.2260   137.4100   136.8250 n7         1 TB4      -0.838400
     20 O02        136.4920   139.5600   134.9470 o          1 TB4      -0.579100
     21 O03        131.5530   133.1940   138.1200 os         1 TB4      -0.350100
     22 H1         133.7120   132.9610   139.4270 ha         1 TB4       0.122500
     23 H2         130.1490   134.5080   137.3440 h1         1 TB4       0.049200
     24 H3         130.5130   133.1020   136.3220 h1         1 TB4       0.049200
     25 H4         129.2440   131.0750   136.5740 ha         1 TB4       0.119000
     26 H5         127.1470   132.9090   140.6650 ha         1 TB4       0.134000
     27 H6         127.4000   129.8360   137.6640 ha         1 TB4       0.120000
     28 H7         131.9270   134.9970   136.0990 ha         1 TB4       0.122500
     29 H8         135.8320   134.1650   139.0090 ha         1 TB4       0.121000
     30 H9         134.0300   136.1830   135.7020 ha         1 TB4       0.121000
     31 H10        137.0550   135.7830   137.9150 h1         1 TB4       0.020700
     32 H11        136.4000   135.3220   134.9960 hc         1 TB4       0.055200
     33 H12        137.7150   134.6310   135.9450 hc         1 TB4       0.055200
     34 H13        138.2440   137.9630   137.1820 h1         1 TB4       0.019700
     35 H14        137.8330   137.0370   134.3590 hc         1 TB4       0.052700
     36 H15        139.0610   136.5670   135.5300 hc         1 TB4       0.052700
     37 H16        126.3440   130.7460   139.7160 ha         1 TB4       0.118000
     38 H17        135.9330   137.8920   137.6680 hn         1 TB4       0.422000
     39 N05        138.5390   139.9990   135.7950 nt         1 TB4      -0.618000
     40 F01        129.0510   134.3300   139.6620 f          1 TB4      -0.178000
     41 H19        138.6060   140.8740   135.3000 hn         1 TB4       0.313500
     42 H20        139.3050   139.7200   136.3860 hn         1 TB4       0.313500
@<TRIPOS>BOND
     1     1     2 ar  
     2     1    10 ar  
     3     1    22 1   
     4     2     9 ar  
     5     2    21 1   
     6     3     6 1   
     7     3    21 1   
     8     3    23 1   
     9     3    24 1   
    10     4     6 ar  
    11     4     8 ar  
    12     4    25 1   
    13     5     6 ar  
    14     5     7 ar  
    15     5    40 1   
    16     7    18 ar  
    17     7    26 1   
    18     8    18 ar  
    19     8    27 1   
    20     9    11 ar  
    21     9    28 1   
    22    10    13 ar  
    23    10    29 1   
    24    11    13 ar  
    25    11    30 1   
    26    12    16 1   
    27    12    20 2   
    28    12    39 1   
    29    13    14 1   
    30    14    15 1   
    31    14    19 1   
    32    14    31 1   
    33    15    17 1   
    34    15    32 1   
    35    15    33 1   
    36    16    17 1   
    37    16    19 1   
    38    16    34 1   
    39    17    35 1   
    40    17    36 1   
    41    18    37 1   
    42    19    38 1   
    43    39    41 1   
    44    39    42 1   
@<TRIPOS>SUBSTRUCTURE
     1 TB4         1 TEMP              0 ****  ****    0 ROOT
