@<TRIPOS>MOLECULE
TB5
   33    35     1     0     0
SMALL
No Charge or Current Charge


@<TRIPOS>ATOM
      1 C10          3.6450    -4.8080     6.9940 ca         1 TB5      -0.182000
      2 N12          5.2840    -5.7150     8.5840 nh         1 TB5      -0.842400
      3 C13          6.4330    -4.8790     8.0930 c6         1 TB5       0.197800
      4 C17          5.5190    -6.4150     9.8930 c6         1 TB5       0.197800
      5 C01         -1.2500    -5.0760     4.9080 cc         1 TB5      -0.181000
      6 C02         -0.5600    -5.7120     3.8500 cc         1 TB5      -0.181000
      7 C03          0.5460    -6.3480     4.3510 cd         1 TB5      -0.194000
      8 C05         -0.5840    -5.3080     6.0840 cd         1 TB5      -0.194000
      9 C06          1.6320    -6.0670     6.4320 ca         1 TB5      -0.058200
     10 C07          2.0460    -7.0920     7.3000 ca         1 TB5      -0.068000
     11 C08          3.2540    -6.9730     8.0110 ca         1 TB5      -0.182000
     12 C09          4.0670    -5.8310     7.8660 ca         1 TB5       0.348000
     13 C11          2.4380    -4.9220     6.2820 ca         1 TB5      -0.068000
     14 C14          7.7940    -5.4090     8.6400 c6         1 TB5       0.145100
     15 C16          6.5640    -5.6520    10.7650 c6         1 TB5       0.145100
     16 N04          0.4340    -6.1930     5.7320 na         1 TB5       0.128200
     17 O15          7.8450    -5.4670    10.0960 os         1 TB5      -0.452000
     18 H1           4.2440    -3.9110     6.8710 ha         1 TB5       0.116000
     19 H2           6.4760    -4.8990     6.9940 h1         1 TB5       0.051450
     20 H3           6.3030    -3.8310     8.3990 h1         1 TB5       0.051450
     21 H4           4.5810    -6.4810    10.4630 h1         1 TB5       0.051450
     22 H5           5.8720    -7.4420     9.7190 h1         1 TB5       0.051450
     23 H7          -0.8380    -5.6410     2.8010 ha         1 TB5       0.130000
     24 H8           1.3590    -6.8780     3.8680 h4         1 TB5       0.144000
     25 H9          -0.7440    -4.9420     7.0910 h4         1 TB5       0.144000
     26 H10          1.4330    -7.9830     7.4220 ha         1 TB5       0.122000
     27 H11          3.5580    -7.7830     8.6660 ha         1 TB5       0.116000
     28 H12          2.1270    -4.1200     5.6150 ha         1 TB5       0.122000
     29 H13          7.9620    -6.4220     8.2480 h1         1 TB5       0.052450
     30 H14          8.6170    -4.7760     8.2800 h1         1 TB5       0.052450
     31 H15          6.1580    -4.6620    11.0150 h1         1 TB5       0.052450
     32 H16          6.7290    -6.1890    11.7090 h1         1 TB5       0.052450
     33 H6          -2.1310    -4.4510     4.7820 ha         1 TB5       0.130000
@<TRIPOS>BOND
     1     1    12 ar  
     2     1    13 ar  
     3     1    18 1   
     4     2     3 1   
     5     2     4 1   
     6     2    12 1   
     7     3    14 1   
     8     3    19 1   
     9     3    20 1   
    10     4    15 1   
    11     4    21 1   
    12     4    22 1   
    13     5     6 1   
    14     5     8 2   
    15     5    33 1   
    16     6     7 2   
    17     6    23 1   
    18     7    16 1   
    19     7    24 1   
    20     8    16 1   
    21     8    25 1   
    22     9    10 ar  
    23     9    13 ar  
    24     9    16 1   
    25    10    11 ar  
    26    10    26 1   
    27    11    12 ar  
    28    11    27 1   
    29    13    28 1   
    30    14    17 1   
    31    14    29 1   
    32    14    30 1   
    33    15    17 1   
    34    15    31 1   
    35    15    32 1   
@<TRIPOS>SUBSTRUCTURE
     1 TB5         1 TEMP              0 ****  ****    0 ROOT
