@<TRIPOS>MOLECULE
TB5
   33    35     1     0     0
SMALL
abcg2


@<TRIPOS>ATOM
      1 C10          3.7970    -4.5900     7.0960 ca         1 TB5      -0.182000
      2 N12          5.3480    -5.6880     8.5940 nh         1 TB5      -0.842400
      3 C13          6.3500    -4.6590     8.4140 c6         1 TB5       0.197800
      4 C17          5.6230    -6.6860     9.6070 c6         1 TB5       0.197800
      5 C01         -1.2960    -5.1180     4.6580 cc         1 TB5      -0.181000
      6 C02         -0.9940    -6.4350     4.2250 cc         1 TB5      -0.181000
      7 C03          0.1920    -6.7920     4.8120 cd         1 TB5      -0.194000
      8 C05         -0.2830    -4.7260     5.4940 cd         1 TB5      -0.194000
      9 C06          1.8070    -5.7300     6.3480 ca         1 TB5      -0.058200
     10 C07          2.1740    -6.8290     7.1150 ca         1 TB5      -0.068000
     11 C08          3.3470    -6.8250     7.8470 ca         1 TB5      -0.182000
     12 C09          4.1920    -5.7000     7.8650 ca         1 TB5       0.348000
     13 C11          2.6360    -4.6150     6.3450 ca         1 TB5      -0.068000
     14 C14          7.7100    -5.1910     8.8240 c6         1 TB5       0.145100
     15 C16          6.5330    -6.1000    10.6710 c6         1 TB5       0.145100
     16 N04          0.6200    -5.7480     5.5840 na         1 TB5       0.128200
     17 O15          7.7630    -5.6290    10.1650 os         1 TB5      -0.452000
     18 H1           4.3950    -3.6900     7.0820 ha         1 TB5       0.116000
     19 H2           6.4200    -4.3800     7.3600 h1         1 TB5       0.051450
     20 H3           6.1080    -3.7440     8.9700 h1         1 TB5       0.051450
     21 H4           4.6980    -6.9840    10.1050 h1         1 TB5       0.051450
     22 H5           6.0640    -7.5960     9.1810 h1         1 TB5       0.051450
     23 H7          -1.5730    -7.0470     3.5510 ha         1 TB5       0.130000
     24 H8           0.7740    -7.6950     4.7270 h4         1 TB5       0.144000
     25 H9          -0.1440    -3.8120     6.0490 h4         1 TB5       0.144000
     26 H10          1.5400    -7.7070     7.1430 ha         1 TB5       0.122000
     27 H11          3.6050    -7.7150     8.4040 ha         1 TB5       0.116000
     28 H12          2.3780    -3.7490     5.7480 ha         1 TB5       0.122000
     29 H13          7.9860    -6.0070     8.1430 h1         1 TB5       0.052450
     30 H14          8.4540    -4.4020     8.7000 h1         1 TB5       0.052450
     31 H15          5.9970    -5.2920    11.1860 h1         1 TB5       0.052450
     32 H16          6.7490    -6.8700    11.4140 h1         1 TB5       0.052450
     33 H6          -2.1600    -4.5290     4.3960 ha         1 TB5       0.130000
@<TRIPOS>BOND
     1     1    12 ar  
     2     1    13 ar  
     3     1    18 1   
     4     2     3 1   
     5     2     4 1   
     6     2    12 1   
     7     3    14 1   
     8     3    19 1   
     9     3    20 1   
    10     4    15 1   
    11     4    21 1   
    12     4    22 1   
    13     5     6 1   
    14     5     8 2   
    15     5    33 1   
    16     6     7 2   
    17     6    23 1   
    18     7    16 1   
    19     7    24 1   
    20     8    16 1   
    21     8    25 1   
    22     9    10 ar  
    23     9    13 ar  
    24     9    16 1   
    25    10    11 ar  
    26    10    26 1   
    27    11    12 ar  
    28    11    27 1   
    29    13    28 1   
    30    14    17 1   
    31    14    29 1   
    32    14    30 1   
    33    15    17 1   
    34    15    31 1   
    35    15    32 1   
@<TRIPOS>SUBSTRUCTURE
     1 TB5         1 TEMP              0 ****  ****    0 ROOT
