@<TRIPOS>MOLECULE
TB6
   15    14     1     0     0
SMALL
No Charge or Current Charge


@<TRIPOS>ATOM
      1 C1           3.0030    -0.8910    -0.0580 c3         1 TB6      -0.126100
      2 C2           1.7270    -0.0510     0.1640 c3         1 TB6       0.204300
      3 C6           0.5240    -0.5940    -0.6280 c3         1 TB6      -0.374400
      4 P7          -1.1160    -0.1180     0.0600 p5         1 TB6       1.308500
      5 O10          2.0050     1.2850    -0.2510 oh         1 TB6      -0.619000
      6 O12         -1.3730     1.3310    -0.1820 o          1 TB6      -0.938500
      7 O13         -2.1540    -0.9330    -0.6350 o          1 TB6      -0.938500
      8 O14         -1.1400    -0.4160     1.5210 o          1 TB6      -0.938500
      9 H1           3.8450    -0.4750     0.5090 hc         1 TB6      -0.001633
     10 H1A          2.8500    -1.9230     0.2800 hc         1 TB6      -0.001633
     11 H1B          3.2820    -0.9150    -1.1190 hc         1 TB6      -0.001633
     12 H2           1.4970    -0.0760     1.2390 h1         1 TB6       0.039700
     13 H6           0.5830    -0.2980    -1.6820 hc         1 TB6       0.008700
     14 H6A          0.5440    -1.6900    -0.6050 hc         1 TB6       0.008700
     15 HO10         2.8420     1.5430     0.1860 ho         1 TB6       0.370000
@<TRIPOS>BOND
     1     1     2 1   
     2     1     9 1   
     3     1    10 1   
     4     1    11 1   
     5     2     3 1   
     6     2     5 1   
     7     2    12 1   
     8     3     4 1   
     9     3    13 1   
    10     3    14 1   
    11     4     6 1   
    12     4     7 1   
    13     4     8 1   
    14     5    15 1   
@<TRIPOS>SUBSTRUCTURE
     1 TB6         1 TEMP              0 ****  ****    0 ROOT
