@<TRIPOS>MOLECULE
TB6
   15    14     1     0     0
SMALL
bcc


@<TRIPOS>ATOM
      1 C1           3.0130    -0.8640    -0.1570 c3         1 TB6      -0.126100
      2 C2           1.7360    -0.1150     0.2100 c3         1 TB6       0.181100
      3 C6           0.5250    -0.6540    -0.5280 c3         1 TB6      -0.216600
      4 P7          -1.1450    -0.0270     0.0260 p5         1 TB6       1.150700
      5 O10          1.8740     1.2690    -0.0750 oh         1 TB6      -0.556800
      6 O12         -1.2550     1.4360    -0.4170 o          1 TB6      -0.938500
      7 O13         -2.1360    -0.9510    -0.7020 o          1 TB6      -0.938500
      8 O14         -1.1400    -0.2130     1.5520 o          1 TB6      -0.938500
      9 H1           3.8820    -0.4690     0.3770 hc         1 TB6      -0.001633
     10 H1A          2.9290    -1.9210     0.0980 hc         1 TB6      -0.001633
     11 H1B          3.2150    -0.7940    -1.2290 hc         1 TB6      -0.001633
     12 H2           1.5570    -0.2580     1.2860 h1         1 TB6       0.039700
     13 H6           0.6580    -0.4940    -1.6060 hc         1 TB6       0.008700
     14 H6A          0.5260    -1.7410    -0.3900 hc         1 TB6       0.008700
     15 HO10         2.6780     1.5750     0.3550 ho         1 TB6       0.331000
@<TRIPOS>BOND
     1     1     2 1   
     2     1     9 1   
     3     1    10 1   
     4     1    11 1   
     5     2     3 1   
     6     2     5 1   
     7     2    12 1   
     8     3     4 1   
     9     3    13 1   
    10     3    14 1   
    11     4     6 1   
    12     4     7 1   
    13     4     8 1   
    14     5    15 1   
@<TRIPOS>SUBSTRUCTURE
     1 TB6         1 TEMP              0 ****  ****    0 ROOT
