@<TRIPOS>MOLECULE
TB7
   42    44     1     0     0
SMALL
No Charge or Current Charge


@<TRIPOS>ATOM
      1 C1           6.4400    -0.3280     0.1580 c3         1 TB7      -0.109100
      2 C2           5.1320    -0.6990    -0.5880 c3         1 TB7       0.222000
      3 C3           4.8010     0.2620    -1.7600 c3         1 TB7      -0.109100
      4 C4           5.2240    -2.1490    -1.1130 c3         1 TB7      -0.109100
      5 O5           4.0230    -0.7330     0.3440 os         1 TB7      -0.469100
      6 C6           3.5520     0.3770     1.0130 c          1 TB7       0.666100
      7 O7           4.1390     1.4500     0.9770 o          1 TB7      -0.548000
      8 N8           2.5010    -0.0970     1.8570 nj         1 TB7      -0.428800
      9 C9           1.8180     1.1660     2.2960 cy         1 TB7       0.102500
     10 C10          0.4980     0.4720     1.8000 cy         1 TB7       0.203500
     11 C11          1.4310    -0.3480     0.8380 cy         1 TB7       0.102500
     12 N12         -0.5540     1.3060     1.2080 nu         1 TB7      -0.893400
     13 C13         -1.6720     0.8650     0.5850 cc         1 TB7       0.738800
     14 N14         -2.5140     1.8070     0.1240 ns         1 TB7      -0.453400
     15 C15         -3.6630     1.5400    -0.5160 c          1 TB7       0.598600
     16 O16         -4.3990     2.4260    -0.9200 o          1 TB7      -0.532000
     17 C17         -3.9370     0.1010    -0.6790 ca         1 TB7      -0.289600
     18 C18         -5.1060    -0.3380    -1.3320 ca         1 TB7       0.011000
     19 C19         -5.3160    -1.7160    -1.4600 ca         1 TB7      -0.213000
     20 C20         -4.3570    -2.5890    -0.9340 ca         1 TB7       0.129900
     21 N21         -3.2420    -2.1610    -0.3110 nb         1 TB7      -0.147000
     22 C22         -3.0110    -0.8360    -0.1720 ca         1 TB7       0.366000
     23 N23         -1.8360    -0.4370     0.4840 nd         1 TB7      -0.772700
     24 H11C         6.4880     0.7380     0.4030 hc         1 TB7       0.049811
     25 H12C         6.5340    -0.9020     1.0880 hc         1 TB7       0.049811
     26 H13C         7.3130    -0.5540    -0.4670 hc         1 TB7       0.049811
     27 H31C         5.5150     0.1230    -2.5800 hc         1 TB7       0.049811
     28 H32C         3.7950     0.0690    -2.1500 hc         1 TB7       0.049811
     29 H33C         4.8590     1.3140    -1.4580 hc         1 TB7       0.049811
     30 H41C         5.4150    -2.8490    -0.2910 hc         1 TB7       0.049811
     31 H42C         4.2890    -2.4460    -1.6040 hc         1 TB7       0.049811
     32 H43C         6.0370    -2.2500    -1.8410 hc         1 TB7       0.049811
     33 H91C         1.8580     1.3370     3.3770 h1         1 TB7       0.065450
     34 H92C         2.0400     2.0880     1.7440 h1         1 TB7       0.065450
     35 H111         1.5720     0.1230    -0.1450 h1         1 TB7       0.065450
     36 H112         1.1560    -1.4030     0.7350 h1         1 TB7       0.065450
     37 H10          0.0520    -0.1630     2.5770 h1         1 TB7       0.111700
     38 H12         -0.5100     2.3140     1.3320 hn         1 TB7       0.498000
     39 H14         -2.2910     2.7790     0.2490 hn         1 TB7       0.326500
     40 H18         -5.8340     0.3680    -1.7310 ha         1 TB7       0.137000
     41 H19         -6.2040    -2.1020    -1.9560 ha         1 TB7       0.130000
     42 H20         -4.4820    -3.6670    -1.0120 h4         1 TB7       0.021100
@<TRIPOS>BOND
     1     1     2 1   
     2     1    24 1   
     3     1    25 1   
     4     1    26 1   
     5     2     3 1   
     6     2     4 1   
     7     2     5 1   
     8     3    27 1   
     9     3    28 1   
    10     3    29 1   
    11     4    30 1   
    12     4    31 1   
    13     4    32 1   
    14     5     6 1   
    15     6     7 2   
    16     6     8 1   
    17     8     9 1   
    18     8    11 1   
    19     9    10 1   
    20     9    33 1   
    21     9    34 1   
    22    10    11 1   
    23    10    12 1   
    24    10    37 1   
    25    11    35 1   
    26    11    36 1   
    27    12    13 1   
    28    12    38 1   
    29    13    14 1   
    30    13    23 2   
    31    14    15 1   
    32    14    39 1   
    33    15    16 2   
    34    15    17 1   
    35    17    18 ar  
    36    17    22 ar  
    37    18    19 ar  
    38    18    40 1   
    39    19    20 ar  
    40    19    41 1   
    41    20    21 ar  
    42    20    42 1   
    43    21    22 ar  
    44    22    23 1   
@<TRIPOS>SUBSTRUCTURE
     1 TB7         1 TEMP              0 ****  ****    0 ROOT
