@<TRIPOS>MOLECULE
TB7
   42    44     1     0     0
SMALL
bcc


@<TRIPOS>ATOM
      1 C1           6.2950    -1.1010     0.6450 c3         1 TB7      -0.109100
      2 C2           5.4860    -0.5820    -0.5380 c3         1 TB7       0.198800
      3 C3           6.0910     0.6850    -1.1310 c3         1 TB7      -0.109100
      4 C4           5.3920    -1.6580    -1.6120 c3         1 TB7      -0.109100
      5 O5           4.1000    -0.3710    -0.1580 os         1 TB7      -0.445900
      6 C6           3.7370     0.5080     0.7720 c          1 TB7       0.782100
      7 O7           4.4680     1.2700     1.3770 o          1 TB7      -0.597000
      8 N8           2.4150     0.4450     0.9850 nj         1 TB7      -0.495800
      9 C9           1.5800     1.3360     1.7640 cy         1 TB7       0.102500
     10 C10          0.3590     0.5530     1.2420 cy         1 TB7       0.203500
     11 C11          1.3190    -0.2250     0.3050 cy         1 TB7       0.102500
     12 N12         -0.6620     1.3620     0.6470 nu         1 TB7      -0.838200
     13 C13         -1.8380     0.8430     0.2660 cc         1 TB7       0.738800
     14 N14         -2.7120     1.7050    -0.3390 ns         1 TB7      -0.520400
     15 C15         -3.9690     1.3450    -0.7710 c          1 TB7       0.741100
     16 O16         -4.7070     2.1520    -1.3040 o          1 TB7      -0.607500
     17 C17         -4.2870    -0.0520    -0.5150 ca         1 TB7      -0.354900
     18 C18         -5.5160    -0.5950    -0.8790 ca         1 TB7      -0.007000
     19 C19         -5.7580    -1.9240    -0.6120 ca         1 TB7      -0.296300
     20 C20         -4.7480    -2.6550     0.0160 ca         1 TB7       0.458200
     21 N21         -3.5770    -2.1610     0.3690 nb         1 TB7      -0.673000
     22 C22         -3.3290    -0.8700     0.1130 ca         1 TB7       0.694300
     23 N23         -2.1070    -0.4090     0.4880 nd         1 TB7      -0.772700
     24 H11C         6.4050    -0.3600     1.4330 hc         1 TB7       0.049811
     25 H12C         5.8350    -1.9960     1.0680 hc         1 TB7       0.049811
     26 H13C         7.2940    -1.3750     0.3040 hc         1 TB7       0.049811
     27 H31C         7.0750     0.4530    -1.5420 hc         1 TB7       0.049811
     28 H32C         5.4760     1.0620    -1.9500 hc         1 TB7       0.049811
     29 H33C         6.2140     1.4740    -0.3940 hc         1 TB7       0.049811
     30 H41C         4.9290    -2.5670    -1.2260 hc         1 TB7       0.049811
     31 H42C         4.8130    -1.3130    -2.4700 hc         1 TB7       0.049811
     32 H43C         6.3910    -1.9150    -1.9640 hc         1 TB7       0.049811
     33 H91C         1.7410     1.3000     2.8410 h1         1 TB7       0.065450
     34 H92C         1.6230     2.3790     1.4330 h1         1 TB7       0.065450
     35 H111         1.2210     0.0420    -0.7500 h1         1 TB7       0.065450
     36 H112         1.3070    -1.3100     0.4100 h1         1 TB7       0.065450
     37 H10         -0.0850    -0.0910     1.9980 h1         1 TB7       0.111700
     38 H12         -0.4060     2.2790     0.3150 hn         1 TB7       0.442800
     39 H14         -2.4460     2.6730    -0.4690 hn         1 TB7       0.326500
     40 H18         -6.2610     0.0220    -1.3630 ha         1 TB7       0.155000
     41 H19         -6.6930    -2.3970    -0.8740 ha         1 TB7       0.148000
     42 H20         -4.9100    -3.7040     0.2410 h4         1 TB7       0.021100
@<TRIPOS>BOND
     1     1     2 1   
     2     1    24 1   
     3     1    25 1   
     4     1    26 1   
     5     2     3 1   
     6     2     4 1   
     7     2     5 1   
     8     3    27 1   
     9     3    28 1   
    10     3    29 1   
    11     4    30 1   
    12     4    31 1   
    13     4    32 1   
    14     5     6 1   
    15     6     7 2   
    16     6     8 1   
    17     8     9 1   
    18     8    11 1   
    19     9    10 1   
    20     9    33 1   
    21     9    34 1   
    22    10    11 1   
    23    10    12 1   
    24    10    37 1   
    25    11    35 1   
    26    11    36 1   
    27    12    13 1   
    28    12    38 1   
    29    13    14 1   
    30    13    23 2   
    31    14    15 1   
    32    14    39 1   
    33    15    16 2   
    34    15    17 1   
    35    17    18 ar  
    36    17    22 ar  
    37    18    19 ar  
    38    18    40 1   
    39    19    20 ar  
    40    19    41 1   
    41    20    21 ar  
    42    20    42 1   
    43    21    22 ar  
    44    22    23 1   
@<TRIPOS>SUBSTRUCTURE
     1 TB7         1 TEMP              0 ****  ****    0 ROOT
