@<TRIPOS>MOLECULE
TB8
   21    21     1     0     0
SMALL
No Charge or Current Charge


@<TRIPOS>ATOM
      1 Cl1         -1.9790    -2.1450     0.2840 cl         1 TB8      -0.192000
      2 C10         -2.1650    -0.4000     0.0980 ca         1 TB8       0.140000
      3 C09         -3.4590     0.1420     0.1940 ca         1 TB8      -0.108000
      4 C08         -3.6600     1.5250     0.0690 ca         1 TB8      -0.088000
      5 C07         -2.5630     2.3710    -0.1530 ca         1 TB8      -0.113000
      6 C06         -1.2670     1.8360    -0.2490 ca         1 TB8      -0.086000
      7 C05         -1.0500     0.4460    -0.1230 ca         1 TB8      -0.067800
      8 C04          0.3370    -0.1050    -0.2340 ce         1 TB8      -0.070200
      9 C03          1.5200     0.5370     0.0030 cf         1 TB8      -0.302200
     10 C02          2.8540    -0.1010    -0.1370 c          1 TB8       0.604300
     11 O01          2.9930    -1.2670    -0.4800 o          1 TB8      -0.567100
     12 N12          3.9290     0.7250     0.1610 ns         1 TB8      -0.383400
     13 O13          5.2850     0.3370    -0.1690 oh         1 TB8      -0.427100
     14 H1          -4.3070    -0.5160     0.3680 ha         1 TB8       0.133000
     15 H2          -4.6640     1.9400     0.1440 ha         1 TB8       0.121000
     16 H3          -2.7160     3.4440    -0.2540 ha         1 TB8       0.120000
     17 H4          -0.4340     2.5090    -0.4340 ha         1 TB8       0.116000
     18 H5           0.3860    -1.1520    -0.5430 ha         1 TB8       0.213000
     19 H6           1.5100     1.5760     0.3250 ha         1 TB8       0.179000
     20 H7           3.7680     1.7220     0.2980 hn         1 TB8       0.331500
     21 H8           5.7810     0.4890     0.6700 ho         1 TB8       0.447000
@<TRIPOS>BOND
     1     1     2 1   
     2     2     3 ar  
     3     2     7 ar  
     4     3     4 ar  
     5     3    14 1   
     6     4     5 ar  
     7     4    15 1   
     8     5     6 ar  
     9     5    16 1   
    10     6     7 ar  
    11     6    17 1   
    12     7     8 1   
    13     8     9 2   
    14     8    18 1   
    15     9    10 1   
    16     9    19 1   
    17    10    11 2   
    18    10    12 1   
    19    12    13 1   
    20    12    20 1   
    21    13    21 1   
@<TRIPOS>SUBSTRUCTURE
     1 TB8         1 TEMP              0 ****  ****    0 ROOT
