@<TRIPOS>MOLECULE
TB8
   21    21     1     0     0
SMALL
abcg2


@<TRIPOS>ATOM
      1 CL1         -1.8810    -2.0860     0.3060 cl         1 TB8      -0.192000
      2 C10         -2.0920    -0.3750     0.1090 ca         1 TB8       0.140000
      3 C09         -3.3800     0.1300     0.2020 ca         1 TB8      -0.108000
      4 C08         -3.5920     1.4930     0.0690 ca         1 TB8      -0.088000
      5 C07         -2.5160     2.3420    -0.1580 ca         1 TB8      -0.113000
      6 C06         -1.2380     1.8240    -0.2490 ca         1 TB8      -0.086000
      7 C05         -0.9870     0.4540    -0.1130 ca         1 TB8      -0.067800
      8 C04          0.3670    -0.0860    -0.2160 ce         1 TB8      -0.070200
      9 C03          1.4880     0.6040     0.0060 cf         1 TB8      -0.302200
     10 C02          2.8100    -0.0430    -0.1590 c          1 TB8       0.604300
     11 O01          2.9660    -1.2060    -0.4900 o          1 TB8      -0.567100
     12 N12          3.8310     0.7910     0.1360 ns         1 TB8      -0.383400
     13 O13          5.1070     0.4140    -0.1460 oh         1 TB8      -0.427100
     14 H1          -4.2110    -0.5380     0.3810 ha         1 TB8       0.133000
     15 H2          -4.5980     1.8860     0.1380 ha         1 TB8       0.121000
     16 H3          -2.6750     3.4060    -0.2710 ha         1 TB8       0.120000
     17 H4          -0.4110     2.4930    -0.4510 ha         1 TB8       0.116000
     18 H5           0.4620    -1.1300    -0.4910 ha         1 TB8       0.213000
     19 H6           1.4630     1.6410     0.3210 ha         1 TB8       0.179000
     20 H7           3.6980     1.7880     0.2250 hn         1 TB8       0.331500
     21 H8           5.4880     0.1130     0.6890 ho         1 TB8       0.447000
@<TRIPOS>BOND
     1     1     2 1   
     2     2     3 ar  
     3     2     7 ar  
     4     3     4 ar  
     5     3    14 1   
     6     4     5 ar  
     7     4    15 1   
     8     5     6 ar  
     9     5    16 1   
    10     6     7 ar  
    11     6    17 1   
    12     7     8 1   
    13     8     9 2   
    14     8    18 1   
    15     9    10 1   
    16     9    19 1   
    17    10    11 2   
    18    10    12 1   
    19    12    13 1   
    20    12    20 1   
    21    13    21 1   
@<TRIPOS>SUBSTRUCTURE
     1 TB8         1 TEMP              0 ****  ****    0 ROOT
