@<TRIPOS>MOLECULE
TB9
   41    43     1     0     0
SMALL
abcg2


@<TRIPOS>ATOM
      1 N1         141.5720   -24.7590    72.2580 ns         1 TB9      -0.416600
      2 C1A        142.3830   -25.2690    73.2420 ca         1 TB9      -0.006400
      3 C2         142.3040   -24.1500    71.2910 cs         1 TB9       0.412400
      4 S2         141.7000   -23.4240    69.9150 s          1 TB9      -0.616400
      5 N3         143.6030   -24.2670    71.6700 n          1 TB9      -0.199000
      6 C3A        143.6800   -24.9510    72.8650 ca         1 TB9      -0.010400
      7 C4         144.7610   -23.9190    70.8750 c3         1 TB9       0.075000
      8 C5         145.7230   -22.9400    71.5580 c3         1 TB9       0.208500
      9 N6         146.1020   -23.2820    72.9230 n3         1 TB9      -0.794600
     10 C7         146.1360   -24.6710    73.3030 c3         1 TB9       0.259100
     11 C7A        144.7790   -25.2330    73.6600 ca         1 TB9      -0.083300
     12 C8         144.5200   -25.9120    74.8400 ca         1 TB9      -0.095000
     13 C9         143.2160   -26.2510    75.2010 ca         1 TB9       0.126000
     14 C10        142.1120   -25.9330    74.4280 ca         1 TB9      -0.097000
     15 C11        146.9590   -22.7990    70.6730 c3         1 TB9      -0.094100
     16 C12        145.7270   -22.3390    73.9640 c3         1 TB9       0.246000
     17 C13        144.2550   -22.2030    74.2480 c2         1 TB9      -0.271200
     18 C14        143.6070   -22.4590    75.3860 c2         1 TB9      -0.091400
     19 C15        142.1210   -22.2660    75.4840 c3         1 TB9      -0.059900
     20 C16        144.2450   -22.9570    76.6490 c3         1 TB9      -0.059900
     21 HN1        140.5650   -24.8110    72.2280 hn         1 TB9       0.485000
     22 H41        145.2800   -24.8440    70.6060 h1         1 TB9       0.081700
     23 H42        144.3990   -23.4770    69.9480 h1         1 TB9       0.081700
     24 H5         145.2170   -21.9710    71.5950 h1         1 TB9       0.064700
     25 H71        146.5950   -25.2550    72.5000 h1         1 TB9       0.060700
     26 H72        146.7980   -24.7900    74.1650 h1         1 TB9       0.060700
     27 H8         145.3370   -26.1400    75.5140 ha         1 TB9       0.134000
     28 H10        141.1040   -26.1730    74.7370 ha         1 TB9       0.142000
     29 H111       147.6190   -22.0300    71.0730 hc         1 TB9       0.043367
     30 H112       147.5160   -23.7370    70.6350 hc         1 TB9       0.043367
     31 H113       146.6960   -22.5220    69.6510 hc         1 TB9       0.043367
     32 H121       146.2760   -22.6140    74.8670 h1         1 TB9       0.053200
     33 H122       146.1160   -21.3590    73.6700 h1         1 TB9       0.053200
     34 H13        143.6620   -21.8420    73.4100 ha         1 TB9       0.171000
     35 H151       141.6300   -23.2020    75.7630 hc         1 TB9       0.040867
     36 H152       141.8670   -21.5370    76.2580 hc         1 TB9       0.040867
     37 H153       141.6880   -21.9270    74.5430 hc         1 TB9       0.040867
     38 H161       143.7600   -23.8780    76.9780 hc         1 TB9       0.040867
     39 H162       145.3100   -23.1610    76.5530 hc         1 TB9       0.040867
     40 H163       144.1160   -22.2310    77.4560 hc         1 TB9       0.040867
     41 CL9        142.9620   -27.0550    76.7190 cl         1 TB9      -0.196000
@<TRIPOS>BOND
     1     1     2 1   
     2     1     3 1   
     3     1    21 1   
     4     2     6 ar  
     5     2    14 ar  
     6     3     4 2   
     7     3     5 1   
     8     5     6 1   
     9     5     7 1   
    10     6    11 ar  
    11     7     8 1   
    12     7    22 1   
    13     7    23 1   
    14     8     9 1   
    15     8    15 1   
    16     8    24 1   
    17     9    10 1   
    18     9    16 1   
    19    10    11 1   
    20    10    25 1   
    21    10    26 1   
    22    11    12 ar  
    23    12    13 ar  
    24    12    27 1   
    25    13    14 ar  
    26    13    41 1   
    27    14    28 1   
    28    15    29 1   
    29    15    30 1   
    30    15    31 1   
    31    16    17 1   
    32    16    32 1   
    33    16    33 1   
    34    17    18 2   
    35    17    34 1   
    36    18    19 1   
    37    18    20 1   
    38    19    35 1   
    39    19    36 1   
    40    19    37 1   
    41    20    38 1   
    42    20    39 1   
    43    20    40 1   
@<TRIPOS>SUBSTRUCTURE
     1 TB9         1 TEMP              0 ****  ****    0 ROOT
