@<TRIPOS>MOLECULE
TB9
   41    43     1     0     0
SMALL
No Charge or Current Charge


@<TRIPOS>ATOM
      1 N1         141.5750   -24.7170    72.3990 ns         1 TB9      -0.416600
      2 C1A        142.4210   -25.3220    73.3220 ca         1 TB9      -0.006400
      3 C2         142.1920   -23.9750    71.4320 cs         1 TB9       0.412400
      4 S2         141.4660   -23.2080    70.1370 s          1 TB9      -0.616400
      5 N3         143.5320   -24.1290    71.7680 n          1 TB9      -0.199000
      6 C3A        143.6860   -24.9850    72.9020 ca         1 TB9      -0.010400
      7 C4         144.6760   -23.8030    70.8990 c3         1 TB9       0.075000
      8 C5         145.7880   -22.9130    71.5330 c3         1 TB9       0.208500
      9 N6         146.1770   -23.2290    72.9420 n3         1 TB9      -0.794600
     10 C7         146.1830   -24.6610    73.3510 c3         1 TB9       0.259100
     11 C7A        144.8070   -25.2170    73.7120 ca         1 TB9      -0.083300
     12 C8         144.5990   -25.9730    74.8930 ca         1 TB9      -0.095000
     13 C9         143.2980   -26.3950    75.2680 ca         1 TB9       0.126000
     14 C10        142.1750   -26.0480    74.4890 ca         1 TB9      -0.097000
     15 C11        147.0380   -22.9130    70.6280 c3         1 TB9      -0.094100
     16 C12        145.7930   -22.2400    73.9810 c3         1 TB9       0.246000
     17 C13        144.2940   -22.1280    74.1860 c2         1 TB9      -0.271200
     18 C14        143.5670   -22.4420    75.2760 c2         1 TB9      -0.091400
     19 C15        142.0610   -22.2670    75.3160 c3         1 TB9      -0.059900
     20 C16        144.1110   -23.0040    76.5820 c3         1 TB9      -0.059900
     21 HN1        140.5650   -24.8350    72.4180 hn         1 TB9       0.485000
     22 H41        145.1260   -24.7540    70.5890 h1         1 TB9       0.081700
     23 H42        144.3120   -23.3110    69.9890 h1         1 TB9       0.081700
     24 H5         145.4010   -21.8840    71.5060 h1         1 TB9       0.064700
     25 H71        146.6110   -25.2830    72.5530 h1         1 TB9       0.060700
     26 H72        146.8430   -24.7840    74.2210 h1         1 TB9       0.060700
     27 H8         145.4390   -26.2070    75.5420 ha         1 TB9       0.134000
     28 H10        141.1670   -26.3080    74.8000 ha         1 TB9       0.142000
     29 H111       147.7930   -22.2210    71.0190 hc         1 TB9       0.043367
     30 H112       147.4830   -23.9130    70.5740 hc         1 TB9       0.043367
     31 H113       146.7790   -22.5940    69.6110 hc         1 TB9       0.043367
     32 H121       146.3010   -22.4760    74.9240 h1         1 TB9       0.053200
     33 H122       146.1670   -21.2490    73.6870 h1         1 TB9       0.053200
     34 H13        143.7860   -21.7290    73.3100 ha         1 TB9       0.171000
     35 H151       141.5570   -23.2210    75.5070 hc         1 TB9       0.040867
     36 H152       141.7650   -21.5670    76.1070 hc         1 TB9       0.040867
     37 H153       141.6710   -21.8760    74.3680 hc         1 TB9       0.040867
     38 H161       143.5900   -23.9270    76.8590 hc         1 TB9       0.040867
     39 H162       145.1780   -23.2440    76.5380 hc         1 TB9       0.040867
     40 H163       143.9700   -22.2900    77.4020 hc         1 TB9       0.040867
     41 Cl9        143.0740   -27.2960    76.7610 cl         1 TB9      -0.196000
@<TRIPOS>BOND
     1     1     2 1   
     2     1     3 1   
     3     1    21 1   
     4     2     6 ar  
     5     2    14 ar  
     6     3     4 2   
     7     3     5 1   
     8     5     6 1   
     9     5     7 1   
    10     6    11 ar  
    11     7     8 1   
    12     7    22 1   
    13     7    23 1   
    14     8     9 1   
    15     8    15 1   
    16     8    24 1   
    17     9    10 1   
    18     9    16 1   
    19    10    11 1   
    20    10    25 1   
    21    10    26 1   
    22    11    12 ar  
    23    12    13 ar  
    24    12    27 1   
    25    13    14 ar  
    26    13    41 1   
    27    14    28 1   
    28    15    29 1   
    29    15    30 1   
    30    15    31 1   
    31    16    17 1   
    32    16    32 1   
    33    16    33 1   
    34    17    18 2   
    35    17    34 1   
    36    18    19 1   
    37    18    20 1   
    38    19    35 1   
    39    19    36 1   
    40    19    37 1   
    41    20    38 1   
    42    20    39 1   
    43    20    40 1   
@<TRIPOS>SUBSTRUCTURE
     1 TB9         1 TEMP              0 ****  ****    0 ROOT
