@<TRIPOS>MOLECULE
TBA
   53    52     1     0     0
SMALL
abcg2


@<TRIPOS>ATOM
      1 N1           2.3080    -0.6370    -4.5920 n4         1 TBA      -0.501000
      2 C11          1.1740     0.2170    -4.0880 c3         1 TBA       0.097100
      3 C12          1.4860     1.0910    -2.8890 c3         1 TBA      -0.099150
      4 C21          3.4880     0.2100    -4.9850 c3         1 TBA       0.097100
      5 C22          3.2190     1.2710    -6.0350 c3         1 TBA      -0.099150
      6 C31          1.7760    -1.4080    -5.7760 c3         1 TBA       0.097100
      7 C32          2.7970    -2.1920    -6.5810 c3         1 TBA      -0.099150
      8 C41          2.7920    -1.5870    -3.5210 c3         1 TBA       0.097100
      9 C42          1.7290    -2.4060    -2.8120 c3         1 TBA      -0.099150
     10 C13          0.1900     1.6730    -2.3270 c3         1 TBA      -0.073650
     11 C14          0.4410     2.6040    -1.1510 c3         1 TBA      -0.093100
     12 C23          4.5370     1.9110    -6.4650 c3         1 TBA      -0.073650
     13 C24          4.3310     3.0410    -7.4620 c3         1 TBA      -0.093100
     14 C33          2.0830    -3.0360    -7.6330 c3         1 TBA      -0.073650
     15 C34          3.0610    -3.8220    -8.4930 c3         1 TBA      -0.093100
     16 C43          2.3980    -3.3940    -1.8590 c3         1 TBA      -0.073650
     17 C44          1.3800    -4.2100    -1.0770 c3         1 TBA      -0.093100
     18 H111         0.3550    -0.4660    -3.8640 hx         1 TBA       0.088450
     19 H112         0.8430     0.8250    -4.9280 hx         1 TBA       0.088450
     20 H121         2.1540     1.9090    -3.1680 hc         1 TBA       0.062325
     21 H122         1.9900     0.5270    -2.1010 hc         1 TBA       0.062325
     22 H211         4.2630    -0.4770    -5.3230 hx         1 TBA       0.088450
     23 H212         3.8590     0.6740    -4.0720 hx         1 TBA       0.088450
     24 H221         2.5580     2.0460    -5.6390 hc         1 TBA       0.062325
     25 H222         2.7260     0.8520    -6.9160 hc         1 TBA       0.062325
     26 H311         1.2630    -0.6910    -6.4150 hx         1 TBA       0.088450
     27 H312         1.0100    -2.0760    -5.3840 hx         1 TBA       0.088450
     28 H321         3.3880    -2.8520    -5.9420 hc         1 TBA       0.062325
     29 H322         3.4960    -1.5180    -7.0820 hc         1 TBA       0.062325
     30 H411         3.3420    -0.9890    -2.7960 hx         1 TBA       0.088450
     31 H412         3.5190    -2.2410    -3.9980 hx         1 TBA       0.088450
     32 H421         1.1080    -2.9620    -3.5180 hc         1 TBA       0.062325
     33 H422         1.0620    -1.7610    -2.2360 hc         1 TBA       0.062325
     34 H131        -0.4650     0.8540    -2.0150 hc         1 TBA       0.049450
     35 H132        -0.3440     2.2110    -3.1150 hc         1 TBA       0.049450
     36 H141         1.0670     3.4490    -1.4430 hc         1 TBA       0.048283
     37 H142         0.9450     2.0840    -0.3360 hc         1 TBA       0.048283
     38 H143        -0.4950     3.0050    -0.7610 hc         1 TBA       0.048283
     39 H231         5.1830     1.1450    -6.9030 hc         1 TBA       0.049450
     40 H232         5.0630     2.2910    -5.5850 hc         1 TBA       0.049450
     41 H241         3.7190     3.8370    -7.0350 hc         1 TBA       0.048283
     42 H242         3.8300     2.6870    -8.3650 hc         1 TBA       0.048283
     43 H243         5.2830     3.4790    -7.7610 hc         1 TBA       0.048283
     44 H331         1.4730    -2.3890    -8.2690 hc         1 TBA       0.049450
     45 H332         1.3910    -3.7240    -7.1380 hc         1 TBA       0.049450
     46 H341         3.6860    -4.4770    -7.8830 hc         1 TBA       0.048283
     47 H342         3.7230    -3.1560    -9.0480 hc         1 TBA       0.048283
     48 H343         2.5360    -4.4460    -9.2170 hc         1 TBA       0.048283
     49 H431         3.0450    -2.8500    -1.1650 hc         1 TBA       0.049450
     50 H432         3.0490    -4.0640    -2.4270 hc         1 TBA       0.049450
     51 H441         0.7420    -4.7900    -1.7450 hc         1 TBA       0.048283
     52 H442         0.7350    -3.5650    -0.4780 hc         1 TBA       0.048283
     53 H443         1.8730    -4.9070    -0.3990 hc         1 TBA       0.048283
@<TRIPOS>BOND
     1     1     2 1   
     2     1     4 1   
     3     1     6 1   
     4     1     8 1   
     5     2     3 1   
     6     2    18 1   
     7     2    19 1   
     8     3    10 1   
     9     3    20 1   
    10     3    21 1   
    11     4     5 1   
    12     4    22 1   
    13     4    23 1   
    14     5    12 1   
    15     5    24 1   
    16     5    25 1   
    17     6     7 1   
    18     6    26 1   
    19     6    27 1   
    20     7    14 1   
    21     7    28 1   
    22     7    29 1   
    23     8     9 1   
    24     8    30 1   
    25     8    31 1   
    26     9    16 1   
    27     9    32 1   
    28     9    33 1   
    29    10    11 1   
    30    10    34 1   
    31    10    35 1   
    32    11    36 1   
    33    11    37 1   
    34    11    38 1   
    35    12    13 1   
    36    12    39 1   
    37    12    40 1   
    38    13    41 1   
    39    13    42 1   
    40    13    43 1   
    41    14    15 1   
    42    14    44 1   
    43    14    45 1   
    44    15    46 1   
    45    15    47 1   
    46    15    48 1   
    47    16    17 1   
    48    16    49 1   
    49    16    50 1   
    50    17    51 1   
    51    17    52 1   
    52    17    53 1   
@<TRIPOS>SUBSTRUCTURE
     1 TBA         1 TEMP              0 ****  ****    0 ROOT
