@<TRIPOS>MOLECULE
TBA
   53    52     1     0     0
SMALL
No Charge or Current Charge


@<TRIPOS>ATOM
      1 N1           2.3050    -0.6260    -4.5700 n4         1 TBA      -0.501000
      2 C11          1.1610     0.2450    -4.0150 c3         1 TBA       0.097100
      3 C12          1.4630     1.1360    -2.7920 c3         1 TBA      -0.099150
      4 C21          3.4880     0.2610    -5.0050 c3         1 TBA       0.097100
      5 C22          3.2290     1.3240    -6.0940 c3         1 TBA      -0.099150
      6 C31          1.7600    -1.4150    -5.7760 c3         1 TBA       0.097100
      7 C32          2.7270    -2.3690    -6.5110 c3         1 TBA      -0.099150
      8 C41          2.8110    -1.5960    -3.4840 c3         1 TBA       0.097100
      9 C42          1.8010    -2.5970    -2.8840 c3         1 TBA      -0.099150
     10 C13          0.2320     1.9510    -2.3450 c3         1 TBA      -0.073650
     11 C14          0.5140     2.8480    -1.1240 c3         1 TBA      -0.093100
     12 C23          4.4960     2.1360    -6.4290 c3         1 TBA      -0.073650
     13 C24          4.2570     3.2030    -7.5150 c3         1 TBA      -0.093100
     14 C33          2.0490    -3.0900    -7.6930 c3         1 TBA      -0.073650
     15 C34          3.0000    -4.0470    -8.4390 c3         1 TBA      -0.093100
     16 C43          2.4420    -3.5020    -1.8130 c3         1 TBA      -0.073650
     17 C44          1.4480    -4.5090    -1.2020 c3         1 TBA      -0.093100
     18 H111         0.3390    -0.4260    -3.7570 hx         1 TBA       0.088450
     19 H112         0.8160     0.8840    -4.8300 hx         1 TBA       0.088450
     20 H121         2.2800     1.8260    -3.0330 hc         1 TBA       0.062325
     21 H122         1.8010     0.5120    -1.9570 hc         1 TBA       0.062325
     22 H211         4.2810    -0.4040    -5.3540 hx         1 TBA       0.088450
     23 H212         3.8580     0.7680    -4.1110 hx         1 TBA       0.088450
     24 H221         2.4420     2.0090    -5.7580 hc         1 TBA       0.062325
     25 H222         2.8660     0.8340    -7.0050 hc         1 TBA       0.062325
     26 H311         1.3830    -0.6870    -6.4970 hx         1 TBA       0.088450
     27 H312         0.9050    -1.9970    -5.4240 hx         1 TBA       0.088450
     28 H321         3.1100    -3.1170    -5.8070 hc         1 TBA       0.062325
     29 H322         3.5880    -1.8020    -6.8830 hc         1 TBA       0.062325
     30 H411         3.2180    -0.9890    -2.6720 hx         1 TBA       0.088450
     31 H412         3.6400    -2.1610    -3.9150 hx         1 TBA       0.088450
     32 H421         1.3880    -3.2240    -3.6830 hc         1 TBA       0.062325
     33 H422         0.9640    -2.0490    -2.4360 hc         1 TBA       0.062325
     34 H131        -0.5890     1.2640    -2.1020 hc         1 TBA       0.049450
     35 H132        -0.1110     2.5780    -3.1780 hc         1 TBA       0.049450
     36 H141         1.3090     3.5700    -1.3470 hc         1 TBA       0.048283
     37 H142         0.8260     2.2450    -0.2620 hc         1 TBA       0.048283
     38 H143        -0.3860     3.4060    -0.8430 hc         1 TBA       0.048283
     39 H231         5.2870     1.4540    -6.7660 hc         1 TBA       0.049450
     40 H232         4.8640     2.6280    -5.5200 hc         1 TBA       0.049450
     41 H241         3.4940     3.9220    -7.1930 hc         1 TBA       0.048283
     42 H242         3.9220     2.7380    -8.4500 hc         1 TBA       0.048283
     43 H243         5.1830     3.7540    -7.7200 hc         1 TBA       0.048283
     44 H331         1.6640    -2.3460    -8.4010 hc         1 TBA       0.049450
     45 H332         1.1860    -3.6590    -7.3250 hc         1 TBA       0.049450
     46 H341         3.3760    -4.8260    -7.7640 hc         1 TBA       0.048283
     47 H342         3.8580    -3.5010    -8.8490 hc         1 TBA       0.048283
     48 H343         2.4770    -4.5370    -9.2690 hc         1 TBA       0.048283
     49 H431         2.8580    -2.8790    -1.0120 hc         1 TBA       0.049450
     50 H432         3.2810    -4.0530    -2.2580 hc         1 TBA       0.049450
     51 H441         1.0410    -5.1710    -1.9760 hc         1 TBA       0.048283
     52 H442         0.6140    -3.9870    -0.7190 hc         1 TBA       0.048283
     53 H443         1.9470    -5.1300    -0.4480 hc         1 TBA       0.048283
@<TRIPOS>BOND
     1     1     2 1   
     2     1     4 1   
     3     1     6 1   
     4     1     8 1   
     5     2     3 1   
     6     2    18 1   
     7     2    19 1   
     8     3    10 1   
     9     3    20 1   
    10     3    21 1   
    11     4     5 1   
    12     4    22 1   
    13     4    23 1   
    14     5    12 1   
    15     5    24 1   
    16     5    25 1   
    17     6     7 1   
    18     6    26 1   
    19     6    27 1   
    20     7    14 1   
    21     7    28 1   
    22     7    29 1   
    23     8     9 1   
    24     8    30 1   
    25     8    31 1   
    26     9    16 1   
    27     9    32 1   
    28     9    33 1   
    29    10    11 1   
    30    10    34 1   
    31    10    35 1   
    32    11    36 1   
    33    11    37 1   
    34    11    38 1   
    35    12    13 1   
    36    12    39 1   
    37    12    40 1   
    38    13    41 1   
    39    13    42 1   
    40    13    43 1   
    41    14    15 1   
    42    14    44 1   
    43    14    45 1   
    44    15    46 1   
    45    15    47 1   
    46    15    48 1   
    47    16    17 1   
    48    16    49 1   
    49    16    50 1   
    50    17    51 1   
    51    17    52 1   
    52    17    53 1   
@<TRIPOS>SUBSTRUCTURE
     1 TBA         1 TEMP              0 ****  ****    0 ROOT
