@<TRIPOS>MOLECULE
TBE
   33    33     1     0     0
SMALL
No Charge or Current Charge


@<TRIPOS>ATOM
      1 S1          -5.1600     6.0490     2.3420 s6         1 TBE       0.881200
      2 O12         -4.1110     6.9760     1.8790 o          1 TBE      -0.549500
      3 O13         -6.5660     6.3270     1.9990 o          1 TBE      -0.549500
      4 C2          -4.7330     4.3550     1.7530 c3         1 TBE      -0.208000
      5 C3          -3.3630     3.9000     2.3880 c3         1 TBE       0.082500
      6 N4          -2.2480     4.7750     1.9150 nu         1 TBE      -0.790200
      7 C5          -0.9150     4.3940     1.9150 c2         1 TBE       0.175000
      8 C20         -5.8650     3.3720     2.1970 c3         1 TBE      -0.090100
      9 C14         -4.6640     4.4080     0.1880 c3         1 TBE       0.080600
     10 N15         -4.3720     3.1250    -0.4840 na         1 TBE       0.141800
     11 N16         -3.1040     2.7980    -0.8640 nc         1 TBE      -0.185800
     12 N17         -3.1780     1.6300    -1.4470 nd         1 TBE      -0.372000
     13 C18         -4.4910     1.2090    -1.4570 cd         1 TBE       0.176900
     14 C19         -5.2700     2.1550    -0.8540 cc         1 TBE      -0.219000
     15 C9          -3.3850     3.7430     3.9690 c          1 TBE       0.715000
     16 O10         -2.8790     2.7400     4.4560 o          1 TBE      -0.703000
     17 O11         -3.9060     4.6240     4.6450 o          1 TBE      -0.703000
     18 C6           0.0370     5.2790     1.5700 ce         1 TBE      -0.531200
     19 C7          -0.1790     6.6880     1.1600 c          1 TBE       0.599100
     20 O8           0.7530     7.4230     0.8600 o          1 TBE      -0.616100
     21 H3          -3.1700     2.8860     2.0130 h1         1 TBE       0.071700
     22 HN4         -2.4580     5.7710     1.8010 hn         1 TBE       0.502000
     23 H5          -0.6990     3.3580     2.2030 h4         1 TBE       0.188000
     24 H201        -6.8090     3.5930     1.6820 hc         1 TBE       0.054700
     25 H202        -5.5980     2.3320     1.9720 hc         1 TBE       0.054700
     26 H203        -6.0580     3.4330     3.2760 hc         1 TBE       0.054700
     27 H141        -5.6240     4.7680    -0.2040 h1         1 TBE       0.085200
     28 H142        -3.9050     5.1340    -0.1320 h1         1 TBE       0.085200
     29 H18         -4.7920     0.2660    -1.8950 h4         1 TBE       0.039100
     30 H19         -6.3340     2.2080    -0.6680 h4         1 TBE       0.163000
     31 H6           1.0790     4.9660     1.5740 ha         1 TBE       0.186000
     32 H7          -1.2280     7.0550     1.1370 h4         1 TBE      -0.043800
     33 HS1         -5.0390     5.8710     3.7090 hs         1 TBE       0.222800
@<TRIPOS>BOND
     1     1     2 2   
     2     1     3 2   
     3     1     4 1   
     4     1    33 1   
     5     4     5 1   
     6     4     8 1   
     7     4     9 1   
     8     5     6 1   
     9     5    15 1   
    10     5    21 1   
    11     6     7 1   
    12     6    22 1   
    13     7    18 2   
    14     7    23 1   
    15     8    24 1   
    16     8    25 1   
    17     8    26 1   
    18     9    10 1   
    19     9    27 1   
    20     9    28 1   
    21    10    11 1   
    22    10    14 1   
    23    11    12 2   
    24    12    13 1   
    25    13    14 2   
    26    13    29 1   
    27    14    30 1   
    28    15    16 1   
    29    15    17 1   
    30    18    19 1   
    31    18    31 1   
    32    19    20 2   
    33    19    32 1   
@<TRIPOS>SUBSTRUCTURE
     1 TBE         1 TEMP              0 ****  ****    0 ROOT
