@<TRIPOS>MOLECULE
TBE
   33    33     1     0     0
SMALL
abcg2


@<TRIPOS>ATOM
      1 S1          -5.4210     5.9390     2.3400 s6         1 TBE       0.881200
      2 O12         -4.3370     6.9270     2.3300 o          1 TBE      -0.549500
      3 O13         -6.6180     6.2340     1.5490 o          1 TBE      -0.549500
      4 C2          -4.7620     4.3160     1.7950 c3         1 TBE      -0.208000
      5 C3          -3.3790     4.0250     2.4120 c3         1 TBE       0.082500
      6 N4          -2.3360     4.8680     1.8730 nu         1 TBE      -0.790200
      7 C5          -1.1340     4.3970     1.5460 c2         1 TBE       0.175000
      8 C20         -5.7810     3.2610     2.2170 c3         1 TBE      -0.090100
      9 C14         -4.6990     4.4310     0.2550 c3         1 TBE       0.080600
     10 N15         -4.3700     3.1740    -0.3780 na         1 TBE       0.141800
     11 N16         -3.1160     2.7600    -0.4790 nc         1 TBE      -0.185800
     12 N17         -3.1220     1.6170    -1.0710 nd         1 TBE      -0.372000
     13 C18         -4.3960     1.2760    -1.3630 cd         1 TBE       0.176900
     14 C19         -5.2150     2.2780    -0.9190 cc         1 TBE      -0.219000
     15 C9          -3.3000     4.0740     3.9710 c          1 TBE       0.715000
     16 O10         -2.2640     3.5950     4.4450 o          1 TBE      -0.703000
     17 O11         -4.2470     4.6090     4.5810 o          1 TBE      -0.703000
     18 C6           0.0110     5.0950     1.2630 ce         1 TBE      -0.531200
     19 C7           0.1360     6.5130     1.3400 c          1 TBE       0.599100
     20 O8           1.1500     7.1530     1.0900 o          1 TBE      -0.616100
     21 H3          -3.1360     3.0010     2.1180 h1         1 TBE       0.071700
     22 HN4         -2.4600     5.8600     2.0140 hn         1 TBE       0.502000
     23 H5          -1.0880     3.3170     1.4790 h4         1 TBE       0.188000
     24 H201        -6.7540     3.4380     1.7600 hc         1 TBE       0.054700
     25 H202        -5.4420     2.2720     1.9060 hc         1 TBE       0.054700
     26 H203        -5.9060     3.2350     3.2970 hc         1 TBE       0.054700
     27 H141        -5.6670     4.7330    -0.1370 h1         1 TBE       0.085200
     28 H142        -3.9640     5.1700    -0.0610 h1         1 TBE       0.085200
     29 H18         -4.6490     0.3590    -1.8670 h4         1 TBE       0.039100
     30 H19         -6.2820     2.4200    -0.9520 h4         1 TBE       0.163000
     31 H6           0.8770     4.5160     0.9700 ha         1 TBE       0.186000
     32 H7          -0.7720     7.0600     1.6610 h4         1 TBE      -0.043800
     33 HS1         -5.7910     5.6880     3.6130 hs         1 TBE       0.222800
@<TRIPOS>BOND
     1     1     2 2   
     2     1     3 2   
     3     1     4 1   
     4     1    33 1   
     5     4     5 1   
     6     4     8 1   
     7     4     9 1   
     8     5     6 1   
     9     5    15 1   
    10     5    21 1   
    11     6     7 1   
    12     6    22 1   
    13     7    18 2   
    14     7    23 1   
    15     8    24 1   
    16     8    25 1   
    17     8    26 1   
    18     9    10 1   
    19     9    27 1   
    20     9    28 1   
    21    10    11 1   
    22    10    14 1   
    23    11    12 2   
    24    12    13 1   
    25    13    14 2   
    26    13    29 1   
    27    14    30 1   
    28    15    16 1   
    29    15    17 1   
    30    18    19 1   
    31    18    31 1   
    32    19    20 2   
    33    19    32 1   
@<TRIPOS>SUBSTRUCTURE
     1 TBE         1 TEMP              0 ****  ****    0 ROOT
