@<TRIPOS>MOLECULE
TBF
   17    16     1     0     0
SMALL
bcc


@<TRIPOS>ATOM
      1 C           -1.5500    -0.1340    -0.0010 c          1 TBF       0.651900
      2 O1          -2.6440     0.3580     0.0010 o          1 TBF      -0.498000
      3 O           -0.4590     0.6060     0.0050 os         1 TBF      -0.435900
      4 C4           0.8530    -0.0270     0.0060 c3         1 TBF       0.181800
      5 C1           1.0290    -0.8760    -1.2460 c3         1 TBF      -0.110433
      6 C2           1.8260     1.1400    -0.0070 c3         1 TBF      -0.110433
      7 C3           1.0320    -0.8490     1.2770 c3         1 TBF      -0.110433
      8 H           -1.3870    -1.2210    -0.0090 h5         1 TBF      -0.012800
      9 H11          0.8650    -0.2880    -2.1490 hc         1 TBF       0.049367
     10 H12          2.0460    -1.2650    -1.2860 hc         1 TBF       0.049367
     11 H13          0.3600    -1.7380    -1.2750 hc         1 TBF       0.049367
     12 H21          1.6960     1.7790     0.8660 hc         1 TBF       0.049367
     13 H22          2.8500     0.7690     0.0030 hc         1 TBF       0.049367
     14 H23          1.7010     1.7530    -0.9000 hc         1 TBF       0.049367
     15 H31          0.3470    -1.6960     1.3320 hc         1 TBF       0.049367
     16 H32          2.0430    -1.2520     1.3130 hc         1 TBF       0.049367
     17 H33          0.8870    -0.2340     2.1670 hc         1 TBF       0.049367
@<TRIPOS>BOND
     1     1     2 2   
     2     1     3 1   
     3     1     8 1   
     4     3     4 1   
     5     4     5 1   
     6     4     6 1   
     7     4     7 1   
     8     5     9 1   
     9     5    10 1   
    10     5    11 1   
    11     6    12 1   
    12     6    13 1   
    13     6    14 1   
    14     7    15 1   
    15     7    16 1   
    16     7    17 1   
@<TRIPOS>SUBSTRUCTURE
     1 TBF         1 TEMP              0 ****  ****    0 ROOT
