@<TRIPOS>MOLECULE
TBF
   17    16     1     0     0
SMALL
No Charge or Current Charge


@<TRIPOS>ATOM
      1 C           -1.5700    -0.1540     0.0040 c          1 TBF       0.602900
      2 O1          -2.6850     0.3490    -0.0020 o          1 TBF      -0.449000
      3 O           -0.4310     0.6120    -0.0030 os         1 TBF      -0.459100
      4 C4           0.8680    -0.0170     0.0040 c3         1 TBF       0.205000
      5 C1           1.0200    -0.8790    -1.2750 c3         1 TBF      -0.110433
      6 C2           1.8780     1.1510    -0.0080 c3         1 TBF      -0.110433
      7 C3           1.0190    -0.8510     1.3020 c3         1 TBF      -0.110433
      8 H           -1.4000    -1.2450     0.0160 h5         1 TBF      -0.012800
      9 H11          0.7800    -0.2930    -2.1710 hc         1 TBF       0.049367
     10 H12          2.0520    -1.2370    -1.3740 hc         1 TBF       0.049367
     11 H13          0.3690    -1.7600    -1.2540 hc         1 TBF       0.049367
     12 H21          1.7450     1.7900     0.8730 hc         1 TBF       0.049367
     13 H22          2.9080     0.7750    -0.0030 hc         1 TBF       0.049367
     14 H23          1.7460     1.7710    -0.9030 hc         1 TBF       0.049367
     15 H31          0.3680    -1.7330     1.2990 hc         1 TBF       0.049367
     16 H32          2.0500    -1.2070     1.4090 hc         1 TBF       0.049367
     17 H33          0.7770    -0.2460     2.1840 hc         1 TBF       0.049367
@<TRIPOS>BOND
     1     1     2 2   
     2     1     3 1   
     3     1     8 1   
     4     3     4 1   
     5     4     5 1   
     6     4     6 1   
     7     4     7 1   
     8     5     9 1   
     9     5    10 1   
    10     5    11 1   
    11     6    12 1   
    12     6    13 1   
    13     6    14 1   
    14     7    15 1   
    15     7    16 1   
    16     7    17 1   
@<TRIPOS>SUBSTRUCTURE
     1 TBF         1 TEMP              0 ****  ****    0 ROOT
