@<TRIPOS>MOLECULE
TBG
   21    20     1     0     0
SMALL
No Charge or Current Charge


@<TRIPOS>ATOM
      1 N          104.5150    11.7600    70.0310 n8         1 TBG      -0.893800
      2 CA         104.3280    13.2460    69.7890 c3         1 TBG       0.024500
      3 CB         105.7080    13.9960    69.6270 c3         1 TBG      -0.016000
      4 CG1        106.5070    13.4660    68.4020 c3         1 TBG      -0.071100
      5 CG2        105.4720    15.5210    69.4390 c3         1 TBG      -0.071100
      6 CG3        106.5720    13.8090    70.9090 c3         1 TBG      -0.071100
      7 C          103.2690    13.6430    68.6610 c          1 TBG       0.902600
      8 O          103.2610    13.0120    67.6070 o          1 TBG      -0.840800
      9 OXT        102.3640    14.4170    68.9540 o          1 TBG      -0.840800
     10 H          103.6020    11.3350    70.2220 hn         1 TBG       0.327300
     11 H2         104.8090    11.3280    69.1490 hn         1 TBG       0.327300
     12 HA         103.8900    13.6280    70.7220 h1         1 TBG       0.032700
     13 HG11       107.4640    13.9950    68.3040 hc         1 TBG       0.021144
     14 HG12       106.7300    12.3970    68.4980 hc         1 TBG       0.021144
     15 HG13       105.9520    13.6160    67.4690 hc         1 TBG       0.021144
     16 HG21       106.4250    16.0650    69.4150 hc         1 TBG       0.021144
     17 HG22       104.9510    15.7360    68.4980 hc         1 TBG       0.021144
     18 HG23       104.8740    15.9290    70.2620 hc         1 TBG       0.021144
     19 HG31       107.5070    14.3780    70.8380 hc         1 TBG       0.021144
     20 HG32       106.0340    14.1570    71.7980 hc         1 TBG       0.021144
     21 HG33       106.8410    12.7570    71.0640 hc         1 TBG       0.021144
@<TRIPOS>BOND
     1     1     2 1   
     2     1    10 1   
     3     1    11 1   
     4     2     3 1   
     5     2     7 1   
     6     2    12 1   
     7     3     4 1   
     8     3     5 1   
     9     3     6 1   
    10     4    13 1   
    11     4    14 1   
    12     4    15 1   
    13     5    16 1   
    14     5    17 1   
    15     5    18 1   
    16     6    19 1   
    17     6    20 1   
    18     6    21 1   
    19     7     8 1   
    20     7     9 1   
@<TRIPOS>SUBSTRUCTURE
     1 TBG         1 TEMP              0 ****  ****    0 ROOT
