@<TRIPOS>MOLECULE
TBG
   21    20     1     0     0
SMALL
bcc


@<TRIPOS>ATOM
      1 N          104.5790    11.8260    69.9960 n8         1 TBG      -0.893800
      2 CA         104.3370    13.2530    69.7940 c3         1 TBG       0.024500
      3 CB         105.6840    14.0080    69.6240 c3         1 TBG      -0.016000
      4 CG1        106.4530    13.5110    68.3970 c3         1 TBG      -0.071100
      5 CG2        105.4530    15.5140    69.4870 c3         1 TBG      -0.071100
      6 CG3        106.5400    13.7770    70.8720 c3         1 TBG      -0.071100
      7 C          103.3430    13.5330    68.6350 c          1 TBG       0.902600
      8 O          103.3510    12.7220    67.6840 o          1 TBG      -0.840800
      9 OXT        102.6110    14.5380    68.7420 o          1 TBG      -0.840800
     10 H          103.7600    11.4210    70.4350 hn         1 TBG       0.327300
     11 H2         104.6110    11.3970    69.0780 hn         1 TBG       0.327300
     12 HA         103.8870    13.6420    70.7150 h1         1 TBG       0.032700
     13 HG11       107.4170    14.0190    68.3240 hc         1 TBG       0.021144
     14 HG12       106.6550    12.4400    68.4540 hc         1 TBG       0.021144
     15 HG13       105.9090    13.7010    67.4710 hc         1 TBG       0.021144
     16 HG21       106.4100    16.0410    69.4750 hc         1 TBG       0.021144
     17 HG22       104.9240    15.7720    68.5700 hc         1 TBG       0.021144
     18 HG23       104.8730    15.9050    70.3260 hc         1 TBG       0.021144
     19 HG31       107.4880    14.3160    70.7950 hc         1 TBG       0.021144
     20 HG32       106.0290    14.1350    71.7690 hc         1 TBG       0.021144
     21 HG33       106.7640    12.7210    71.0160 hc         1 TBG       0.021144
@<TRIPOS>BOND
     1     1     2 1   
     2     1    10 1   
     3     1    11 1   
     4     2     3 1   
     5     2     7 1   
     6     2    12 1   
     7     3     4 1   
     8     3     5 1   
     9     3     6 1   
    10     4    13 1   
    11     4    14 1   
    12     4    15 1   
    13     5    16 1   
    14     5    17 1   
    15     5    18 1   
    16     6    19 1   
    17     6    20 1   
    18     6    21 1   
    19     7     8 1   
    20     7     9 1   
@<TRIPOS>SUBSTRUCTURE
     1 TBG         1 TEMP              0 ****  ****    0 ROOT
