@<TRIPOS>MOLECULE
TBH
   88    89     1     0     0
SMALL
No Charge or Current Charge


@<TRIPOS>ATOM
      1 O43         -3.5980    -1.9640     3.2240 o          1 TBH      -0.712000
      2 C27         -2.6950    -1.1850     2.9580 c          1 TBH       0.726600
      3 O42         -2.4180    -0.2030     3.6310 o          1 TBH      -0.712000
      4 C6          -1.7940    -1.5080     1.8080 ca         1 TBH      -0.153600
      5 C5          -0.4830    -1.9660     2.0550 ca         1 TBH      -0.080000
      6 C1          -2.2420    -1.3410     0.4840 ca         1 TBH       0.182100
      7 O9          -3.5110    -0.8360     0.2670 os         1 TBH      -0.257100
      8 C23         -4.0060    -0.5330    -1.0590 c3         1 TBH       0.003600
      9 C24         -5.4500     0.0520    -1.0550 c          1 TBH       0.723000
     10 O25         -6.0510     0.1800     0.0040 o          1 TBH      -0.721000
     11 O26         -5.9390     0.3550    -2.1360 o          1 TBH      -0.721000
     12 C2          -1.3780    -1.6670    -0.5860 ca         1 TBH      -0.252000
     13 C3          -0.0790    -2.1330    -0.3350 ca         1 TBH      -0.114000
     14 C4           0.3790    -2.2760     0.9870 ca         1 TBH      -0.196300
     15 C7           1.8220    -2.7130     1.2600 c3         1 TBH      -0.025100
     16 C8           2.7410    -1.5310     1.6930 c3         1 TBH       0.161500
     17 C11          4.2830    -1.8630     1.7060 c3         1 TBH       0.397500
     18 N13          4.7860    -1.9690     0.3590 n7         1 TBH      -0.909400
     19 C15          6.2060    -1.6250     0.1780 c3         1 TBH       0.167800
     20 C16          6.5690    -1.6670    -1.3190 c3         1 TBH      -0.081400
     21 C17          8.0480    -1.3110    -1.5900 c3         1 TBH      -0.075400
     22 C18          8.4160    -1.3510    -3.0890 c3         1 TBH      -0.076400
     23 C19          9.8910    -0.9970    -3.3580 c3         1 TBH      -0.087100
     24 O14          4.5790    -3.1340     2.1850 oh         1 TBH      -0.668000
     25 N10          2.4450    -0.3840     0.7740 n7         1 TBH      -0.959400
     26 C12          1.7430     0.7250     1.3950 c3         1 TBH       0.364500
     27 O20          2.8360     1.5270     1.7130 oh         1 TBH      -0.671000
     28 C21          0.7120     1.4390     0.4270 c3         1 TBH       0.181500
     29 N22         -0.0140     2.5650     1.0860 n7         1 TBH      -0.958400
     30 C35         -1.1760     2.2170     1.8410 c3         1 TBH       0.626500
     31 O36         -0.7120     1.7680     3.0800 oh         1 TBH      -0.648000
     32 O37         -1.9070     3.4200     2.0280 os         1 TBH      -0.515000
     33 C38         -3.2490     3.4770     1.4880 c3         1 TBH       0.212000
     34 C40         -4.1280     2.4110     2.1890 c3         1 TBH      -0.109100
     35 C39         -3.7580     4.8970     1.8210 c3         1 TBH      -0.109100
     36 C41         -3.1930     3.2690    -0.0490 c3         1 TBH      -0.109100
     37 C28          1.3320     1.9500    -0.9060 c3         1 TBH      -0.029100
     38 C29          0.2690     2.3590    -1.9250 ca         1 TBH      -0.061300
     39 C30          0.0140     3.7190    -2.1910 ca         1 TBH      -0.103000
     40 C31         -0.9810     4.0880    -3.1140 ca         1 TBH      -0.108000
     41 C32         -1.7270     3.0980    -3.7760 ca         1 TBH      -0.113000
     42 C33         -1.4750     1.7410    -3.5190 ca         1 TBH      -0.108000
     43 C34         -0.4780     1.3730    -2.5990 ca         1 TBH      -0.103000
     44 H51         -0.1370    -2.0720     3.0810 ha         1 TBH       0.107000
     45 H231        -3.3490     0.1980    -1.5480 h1         1 TBH       0.004200
     46 H232        -4.0190    -1.4440    -1.6720 h1         1 TBH       0.004200
     47 H21         -1.6970    -1.5580    -1.6180 ha         1 TBH       0.100000
     48 H31          0.5770    -2.3670    -1.1710 ha         1 TBH       0.069000
     49 H71          2.2400    -3.1880     0.3640 hc         1 TBH       0.037700
     50 H72          1.8350    -3.4820     2.0420 hc         1 TBH       0.037700
     51 H81          2.4710    -1.2770     2.7280 h1         1 TBH       0.073700
     52 H111         4.8210    -1.0980     2.2830 h2         1 TBH       0.050700
     53 H131         4.2290    -1.2560    -0.1340 hn         1 TBH       0.440000
     54 H151         6.8470    -2.3320     0.7230 h1         1 TBH       0.025200
     55 H152         6.4080    -0.6170     0.5660 h1         1 TBH       0.025200
     56 H161         5.9250    -0.9670    -1.8660 hc         1 TBH       0.043700
     57 H162         6.3620    -2.6700    -1.7120 hc         1 TBH       0.043700
     58 H171         8.6910    -2.0110    -1.0420 hc         1 TBH       0.033700
     59 H172         8.2550    -0.3090    -1.1940 hc         1 TBH       0.033700
     60 H181         7.7750    -0.6510    -3.6400 hc         1 TBH       0.037200
     61 H182         8.2120    -2.3530    -3.4870 hc         1 TBH       0.037200
     62 H191        10.1180     0.0160    -3.0020 hc         1 TBH       0.026367
     63 H192        10.5590    -1.7010    -2.8480 hc         1 TBH       0.026367
     64 H193        10.1040    -1.0380    -4.4330 hc         1 TBH       0.026367
     65 H141         4.9260    -3.5190     1.3540 ho         1 TBH       0.448000
     66 H101         1.7560    -0.7890     0.1270 hn         1 TBH       0.453000
     67 H121         1.2180     0.4140     2.3090 h2         1 TBH       0.102700
     68 H201         3.5330     1.0000     1.2750 ho         1 TBH       0.427000
     69 H211        -0.0120     0.6640     0.1370 h1         1 TBH       0.096700
     70 H221         0.6120     3.0050     1.7580 hn         1 TBH       0.419000
     71 H351        -1.7640     1.3980     1.3910 h3         1 TBH       0.126700
     72 H361        -1.3940     1.1110     3.3720 ho         1 TBH       0.418000
     73 H401        -4.0230     2.4710     3.2780 hc         1 TBH       0.046144
     74 H402        -5.1850     2.5660     1.9420 hc         1 TBH       0.046144
     75 H403        -3.8660     1.3980     1.8690 hc         1 TBH       0.046144
     76 H391        -3.1150     5.6590     1.3650 hc         1 TBH       0.046144
     77 H392        -4.7770     5.0440     1.4440 hc         1 TBH       0.046144
     78 H393        -3.7690     5.0630     2.9050 hc         1 TBH       0.046144
     79 H411        -2.8670     2.2570    -0.3140 hc         1 TBH       0.046144
     80 H412        -4.1830     3.4230    -0.4930 hc         1 TBH       0.046144
     81 H413        -2.5010     3.9830    -0.5120 hc         1 TBH       0.046144
     82 H281         2.0120     2.7860    -0.6990 hc         1 TBH       0.034700
     83 H282         1.9520     1.1610    -1.3480 hc         1 TBH       0.034700
     84 H301         0.5780     4.4910    -1.6730 ha         1 TBH       0.108500
     85 H311        -1.1760     5.1390    -3.3110 ha         1 TBH       0.108000
     86 H321        -2.4990     3.3840    -4.4880 ha         1 TBH       0.105000
     87 H331        -2.0510     0.9730    -4.0320 ha         1 TBH       0.108000
     88 H341        -0.2860     0.3200    -2.4080 ha         1 TBH       0.108500
@<TRIPOS>BOND
     1     1     2 1   
     2     2     3 1   
     3     2     4 1   
     4     4     5 ar  
     5     4     6 ar  
     6     5    14 ar  
     7     5    44 1   
     8     6     7 1   
     9     6    12 ar  
    10     7     8 1   
    11     8     9 1   
    12     8    45 1   
    13     8    46 1   
    14     9    10 1   
    15     9    11 1   
    16    12    13 ar  
    17    12    47 1   
    18    13    14 ar  
    19    13    48 1   
    20    14    15 1   
    21    15    16 1   
    22    15    49 1   
    23    15    50 1   
    24    16    17 1   
    25    16    25 1   
    26    16    51 1   
    27    17    18 1   
    28    17    24 1   
    29    17    52 1   
    30    18    19 1   
    31    18    53 1   
    32    19    20 1   
    33    19    54 1   
    34    19    55 1   
    35    20    21 1   
    36    20    56 1   
    37    20    57 1   
    38    21    22 1   
    39    21    58 1   
    40    21    59 1   
    41    22    23 1   
    42    22    60 1   
    43    22    61 1   
    44    23    62 1   
    45    23    63 1   
    46    23    64 1   
    47    24    65 1   
    48    25    26 1   
    49    25    66 1   
    50    26    27 1   
    51    26    28 1   
    52    26    67 1   
    53    27    68 1   
    54    28    29 1   
    55    28    37 1   
    56    28    69 1   
    57    29    30 1   
    58    29    70 1   
    59    30    31 1   
    60    30    32 1   
    61    30    71 1   
    62    31    72 1   
    63    32    33 1   
    64    33    34 1   
    65    33    35 1   
    66    33    36 1   
    67    34    73 1   
    68    34    74 1   
    69    34    75 1   
    70    35    76 1   
    71    35    77 1   
    72    35    78 1   
    73    36    79 1   
    74    36    80 1   
    75    36    81 1   
    76    37    38 1   
    77    37    82 1   
    78    37    83 1   
    79    38    39 ar  
    80    38    43 ar  
    81    39    40 ar  
    82    39    84 1   
    83    40    41 ar  
    84    40    85 1   
    85    41    42 ar  
    86    41    86 1   
    87    42    43 ar  
    88    42    87 1   
    89    43    88 1   
@<TRIPOS>SUBSTRUCTURE
     1 TBH         1 TEMP              0 ****  ****    0 ROOT
