@<TRIPOS>MOLECULE
TBH
   88    89     1     0     0
SMALL
abcg2


@<TRIPOS>ATOM
      1 O43         -3.6250    -2.4230     2.9040 o          1 TBH      -0.712000
      2 C27         -2.6670    -1.6330     2.8370 c          1 TBH       0.726600
      3 O42         -2.3060    -0.8030     3.6930 o          1 TBH      -0.712000
      4 C6          -1.8030    -1.7350     1.5930 ca         1 TBH      -0.153600
      5 C5          -0.4720    -2.0940     1.7200 ca         1 TBH      -0.080000
      6 C1          -2.3230    -1.4990     0.3100 ca         1 TBH       0.182100
      7 O9          -3.6010    -1.0830     0.2460 os         1 TBH      -0.257100
      8 C23         -4.0970    -0.6240    -0.9920 c3         1 TBH       0.003600
      9 C24         -5.5090    -0.0370    -0.8450 c          1 TBH       0.723000
     10 O25         -6.0850    -0.1330     0.2480 o          1 TBH      -0.721000
     11 O26         -5.9430     0.4760    -1.8960 o          1 TBH      -0.721000
     12 C2          -1.5030    -1.6790    -0.8000 ca         1 TBH      -0.252000
     13 C3          -0.1780    -2.0790    -0.6390 ca         1 TBH      -0.114000
     14 C4           0.3660    -2.2840     0.6200 ca         1 TBH      -0.196300
     15 C7           1.8270    -2.5920     0.8040 c3         1 TBH      -0.025100
     16 C8           2.5790    -1.3810     1.3850 c3         1 TBH       0.161500
     17 C11          4.0990    -1.6030     1.4720 c3         1 TBH       0.397500
     18 N13          4.6560    -1.7240     0.1510 n7         1 TBH      -0.909400
     19 C15          6.0980    -1.5580     0.0870 c3         1 TBH       0.167800
     20 C16          6.5990    -1.6760    -1.3440 c3         1 TBH      -0.081400
     21 C17          8.1070    -1.4900    -1.4550 c3         1 TBH      -0.075400
     22 C18          8.6240    -1.6190    -2.8830 c3         1 TBH      -0.076400
     23 C19         10.1310    -1.4270    -2.9860 c3         1 TBH      -0.087100
     24 O14          4.4210    -2.7280     2.2550 oh         1 TBH      -0.668000
     25 N10          2.3020    -0.1790     0.6120 n7         1 TBH      -0.959400
     26 C12          1.7300     0.9410     1.3060 c3         1 TBH       0.364500
     27 O20          2.7250     1.8460     1.7360 oh         1 TBH      -0.671000
     28 C21          0.6550     1.6220     0.4350 c3         1 TBH       0.181500
     29 N22         -0.0520     2.6990     1.0800 n7         1 TBH      -0.958400
     30 C35         -0.9130     2.4080     2.1790 c3         1 TBH       0.626500
     31 O36         -0.2820     2.3640     3.4300 oh         1 TBH      -0.648000
     32 O37         -1.9150     3.3820     2.2610 os         1 TBH      -0.515000
     33 C38         -3.1530     3.1480     1.5730 c3         1 TBH       0.212000
     34 C40         -4.0110     2.1810     2.3850 c3         1 TBH      -0.109100
     35 C39         -3.8220     4.5160     1.5110 c3         1 TBH      -0.109100
     36 C41         -2.9570     2.6130     0.1570 c3         1 TBH      -0.109100
     37 C28          1.2230     2.1430    -0.8930 c3         1 TBH      -0.029100
     38 C29          0.1410     2.5740    -1.8410 ca         1 TBH      -0.061300
     39 C30         -0.1240     3.9180    -2.0810 ca         1 TBH      -0.103000
     40 C31         -1.1530     4.3020    -2.9330 ca         1 TBH      -0.108000
     41 C32         -1.9370     3.3410    -3.5550 ca         1 TBH      -0.113000
     42 C33         -1.6800     1.9950    -3.3250 ca         1 TBH      -0.108000
     43 C34         -0.6480     1.6190    -2.4780 ca         1 TBH      -0.103000
     44 H51         -0.0710    -2.2450     2.7170 ha         1 TBH       0.107000
     45 H231        -3.4400     0.1470    -1.4130 h1         1 TBH       0.004200
     46 H232        -4.1370    -1.4420    -1.7260 h1         1 TBH       0.004200
     47 H21         -1.8710    -1.5100    -1.8030 ha         1 TBH       0.100000
     48 H31          0.4360    -2.2130    -1.5230 ha         1 TBH       0.069000
     49 H71          2.2720    -2.8740    -0.1540 hc         1 TBH       0.037700
     50 H72          1.9500    -3.4450     1.4770 hc         1 TBH       0.037700
     51 H81          2.2290    -1.2330     2.4140 h1         1 TBH       0.073700
     52 H111         4.5220    -0.7470     2.0230 h2         1 TBH       0.050700
     53 H131         4.2160    -1.0180    -0.4290 hn         1 TBH       0.440000
     54 H151         6.5700    -2.3320     0.6960 h1         1 TBH       0.025200
     55 H152         6.4210    -0.5920     0.5090 h1         1 TBH       0.025200
     56 H161         6.0960    -0.9300    -1.9680 hc         1 TBH       0.043700
     57 H162         6.3170    -2.6550    -1.7440 hc         1 TBH       0.043700
     58 H171         8.6130    -2.2260    -0.8210 hc         1 TBH       0.033700
     59 H172         8.3830    -0.5060    -1.0580 hc         1 TBH       0.033700
     60 H181         8.1180    -0.8860    -3.5190 hc         1 TBH       0.037200
     61 H182         8.3520    -2.6020    -3.2790 hc         1 TBH       0.037200
     62 H191        10.4280    -0.4410    -2.6260 hc         1 TBH       0.026367
     63 H192        10.6650    -2.1690    -2.3900 hc         1 TBH       0.026367
     64 H193        10.4770    -1.5210    -4.0160 hc         1 TBH       0.026367
     65 H141         4.2320    -3.5120     1.7260 ho         1 TBH       0.448000
     66 H101         1.7560    -0.4080    -0.2060 hn         1 TBH       0.453000
     67 H121         1.2360     0.6130     2.2280 h2         1 TBH       0.102700
     68 H201         3.3500     1.9500     1.0100 ho         1 TBH       0.427000
     69 H211        -0.0850     0.8410     0.2160 h1         1 TBH       0.096700
     70 H221         0.5280     3.5170     1.2280 hn         1 TBH       0.419000
     71 H351        -1.3250     1.4020     2.0370 h3         1 TBH       0.126700
     72 H361         0.2960     3.1310     3.5180 ho         1 TBH       0.418000
     73 H401        -4.2740     2.6120     3.3530 hc         1 TBH       0.046144
     74 H402        -4.9310     1.9400     1.8520 hc         1 TBH       0.046144
     75 H403        -3.4990     1.2340     2.5630 hc         1 TBH       0.046144
     76 H391        -3.2370     5.2150     0.9100 hc         1 TBH       0.046144
     77 H392        -4.8120     4.4340     1.0610 hc         1 TBH       0.046144
     78 H393        -3.9460     4.9420     2.5090 hc         1 TBH       0.046144
     79 H411        -2.5530     1.6010     0.1560 hc         1 TBH       0.046144
     80 H412        -3.9240     2.5640    -0.3450 hc         1 TBH       0.046144
     81 H413        -2.2910     3.2400    -0.4320 hc         1 TBH       0.046144
     82 H281         1.9000     2.9790    -0.6920 hc         1 TBH       0.034700
     83 H282         1.8330     1.3710    -1.3700 hc         1 TBH       0.034700
     84 H301         0.4780     4.6760    -1.5940 ha         1 TBH       0.108500
     85 H311        -1.3440     5.3530    -3.1070 ha         1 TBH       0.108000
     86 H321        -2.7430     3.6370    -4.2150 ha         1 TBH       0.105000
     87 H331        -2.2850     1.2370    -3.8080 ha         1 TBH       0.108000
     88 H341        -0.4570     0.5660    -2.3010 ha         1 TBH       0.108500
@<TRIPOS>BOND
     1     1     2 1   
     2     2     3 1   
     3     2     4 1   
     4     4     5 ar  
     5     4     6 ar  
     6     5    14 ar  
     7     5    44 1   
     8     6     7 1   
     9     6    12 ar  
    10     7     8 1   
    11     8     9 1   
    12     8    45 1   
    13     8    46 1   
    14     9    10 1   
    15     9    11 1   
    16    12    13 ar  
    17    12    47 1   
    18    13    14 ar  
    19    13    48 1   
    20    14    15 1   
    21    15    16 1   
    22    15    49 1   
    23    15    50 1   
    24    16    17 1   
    25    16    25 1   
    26    16    51 1   
    27    17    18 1   
    28    17    24 1   
    29    17    52 1   
    30    18    19 1   
    31    18    53 1   
    32    19    20 1   
    33    19    54 1   
    34    19    55 1   
    35    20    21 1   
    36    20    56 1   
    37    20    57 1   
    38    21    22 1   
    39    21    58 1   
    40    21    59 1   
    41    22    23 1   
    42    22    60 1   
    43    22    61 1   
    44    23    62 1   
    45    23    63 1   
    46    23    64 1   
    47    24    65 1   
    48    25    26 1   
    49    25    66 1   
    50    26    27 1   
    51    26    28 1   
    52    26    67 1   
    53    27    68 1   
    54    28    29 1   
    55    28    37 1   
    56    28    69 1   
    57    29    30 1   
    58    29    70 1   
    59    30    31 1   
    60    30    32 1   
    61    30    71 1   
    62    31    72 1   
    63    32    33 1   
    64    33    34 1   
    65    33    35 1   
    66    33    36 1   
    67    34    73 1   
    68    34    74 1   
    69    34    75 1   
    70    35    76 1   
    71    35    77 1   
    72    35    78 1   
    73    36    79 1   
    74    36    80 1   
    75    36    81 1   
    76    37    38 1   
    77    37    82 1   
    78    37    83 1   
    79    38    39 ar  
    80    38    43 ar  
    81    39    40 ar  
    82    39    84 1   
    83    40    41 ar  
    84    40    85 1   
    85    41    42 ar  
    86    41    86 1   
    87    42    43 ar  
    88    42    87 1   
    89    43    88 1   
@<TRIPOS>SUBSTRUCTURE
     1 TBH         1 TEMP              0 ****  ****    0 ROOT
