@<TRIPOS>MOLECULE
TBI
   33    33     1     0     0
SMALL
No Charge or Current Charge


@<TRIPOS>ATOM
      1 C18          0.0660     1.6840     2.3160 cc         1 TBI      -0.215000
      2 C19         -0.9940     1.7370     3.1760 cd         1 TBI       0.177900
      3 N17         -1.9350     2.6160     2.6820 nd         1 TBI      -0.368000
      4 N16         -1.5080     3.1120     1.5510 nc         1 TBI      -0.194800
      5 N15         -0.2940     2.5420     1.3070 na         1 TBI       0.141800
      6 C14          0.4950     2.9000     0.1100 c3         1 TBI       0.079600
      7 C2           0.3370     1.9390    -1.1190 c3         1 TBI      -0.219000
      8 S1           1.4590     2.5530    -2.4460 s6         1 TBI       0.881200
      9 O12          1.0720     3.9370    -2.7770 o          1 TBI      -0.548000
     10 O13          2.8510     2.2740    -2.0520 o          1 TBI      -0.548000
     11 C20          0.7820     0.4950    -0.7200 c3         1 TBI      -0.087100
     12 C3          -1.1460     1.9040    -1.6520 c3         1 TBI       0.094500
     13 C9          -1.3990     0.8880    -2.8470 c          1 TBI       0.711000
     14 O11         -0.6020     0.8560    -3.7790 o          1 TBI      -0.703500
     15 O10         -2.3840     0.1630    -2.7890 o          1 TBI      -0.703500
     16 N4          -1.6270     3.2840    -1.9630 nu         1 TBI      -0.789200
     17 C5          -2.9600     3.6530    -1.9910 c2         1 TBI       0.156000
     18 C6          -3.2470     4.8810    -2.4410 ce         1 TBI      -0.537200
     19 C7          -4.6330     5.3930    -2.5160 c          1 TBI       0.604100
     20 O8          -4.8920     6.5160    -2.9270 o          1 TBI      -0.613100
     21 H18          0.9940     1.1300     2.3420 h4         1 TBI       0.164000
     22 H19         -1.1320     1.2070     4.1100 h4         1 TBI       0.040100
     23 H141         1.5500     2.9270     0.4140 h1         1 TBI       0.086200
     24 H142         0.2260     3.9250    -0.1750 h1         1 TBI       0.086200
     25 H201         1.7680     0.5010    -0.2380 hc         1 TBI       0.055033
     26 H202         0.0720     0.0410    -0.0170 hc         1 TBI       0.055033
     27 H203         0.8460    -0.1680    -1.5920 hc         1 TBI       0.055033
     28 H3          -1.7610     1.5170    -0.8280 h1         1 TBI       0.075700
     29 HN4         -0.9540     3.9320    -2.3860 hn         1 TBI       0.512000
     30 H5          -3.7000     2.9210    -1.6420 h4         1 TBI       0.189000
     31 H6          -2.4750     5.5700    -2.7740 ha         1 TBI       0.190000
     32 H77         -5.4340     4.7000    -2.1780 h4         1 TBI      -0.050800
     33 HS1          1.0910     1.7170    -3.4850 hs         1 TBI       0.222800
@<TRIPOS>BOND
     1     1     2 2   
     2     1     5 1   
     3     1    21 1   
     4     2     3 1   
     5     2    22 1   
     6     3     4 2   
     7     4     5 1   
     8     5     6 1   
     9     6     7 1   
    10     6    23 1   
    11     6    24 1   
    12     7     8 1   
    13     7    11 1   
    14     7    12 1   
    15     8     9 2   
    16     8    10 2   
    17     8    33 1   
    18    11    25 1   
    19    11    26 1   
    20    11    27 1   
    21    12    13 1   
    22    12    16 1   
    23    12    28 1   
    24    13    14 1   
    25    13    15 1   
    26    16    17 1   
    27    16    29 1   
    28    17    18 2   
    29    17    30 1   
    30    18    19 1   
    31    18    31 1   
    32    19    20 2   
    33    19    32 1   
@<TRIPOS>SUBSTRUCTURE
     1 TBI         1 TEMP              0 ****  ****    0 ROOT
