@<TRIPOS>MOLECULE
TBI
   33    33     1     0     0
SMALL
bcc


@<TRIPOS>ATOM
      1 C18         -0.0590     1.9480     2.2210 cc         1 TBI      -0.247600
      2 C19         -1.2110     1.8620     2.9540 cd         1 TBI       0.243200
      3 N17         -2.2020     2.4510     2.2510 nd         1 TBI      -0.368000
      4 N16         -1.7250     2.8900     1.1390 nc         1 TBI      -0.194800
      5 N15         -0.4340     2.5950     1.1020 na         1 TBI       0.120400
      6 C14          0.3740     2.9440    -0.0420 c3         1 TBI       0.050300
      7 C2           0.2770     1.8940    -1.1690 c3         1 TBI      -0.108200
      8 S1           1.5970     2.3950    -2.3440 s6         1 TBI       0.912000
      9 O12          1.2260     3.6550    -2.9930 o          1 TBI      -0.618800
     10 O13          2.8680     2.3570    -1.6180 o          1 TBI      -0.618800
     11 C20          0.6450     0.4980    -0.6740 c3         1 TBI      -0.087100
     12 C3          -1.1260     1.8730    -1.8110 c3         1 TBI       0.094500
     13 C9          -1.2240     0.8700    -2.9930 c          1 TBI       0.921600
     14 O11         -0.4090     1.0770    -3.9170 o          1 TBI      -0.808800
     15 O10         -2.1010     0.0010    -2.9290 o          1 TBI      -0.808800
     16 N4          -1.5670     3.1770    -2.2510 nu         1 TBI      -0.734000
     17 C5          -2.7210     3.7320    -1.8970 c2         1 TBI       0.206000
     18 C6          -3.2270     4.9120    -2.3670 ce         1 TBI      -0.487200
     19 C7          -4.4760     5.3660    -1.8530 c          1 TBI       0.604100
     20 O8          -5.0570     6.3990    -2.1620 o          1 TBI      -0.613100
     21 H18          0.9510     1.6270     2.4080 h4         1 TBI       0.182000
     22 H19         -1.3710     1.4240     3.9250 h4         1 TBI       0.040100
     23 H141         1.4010     3.0340     0.3080 h1         1 TBI       0.086200
     24 H142         0.0560     3.9250    -0.3910 h1         1 TBI       0.086200
     25 H201         1.5550     0.5070    -0.0750 hc         1 TBI       0.055033
     26 H202        -0.1600     0.0950    -0.0590 hc         1 TBI       0.055033
     27 H203         0.7940    -0.2030    -1.4960 hc         1 TBI       0.055033
     28 H3          -1.8080     1.5540    -1.0210 h1         1 TBI       0.075700
     29 HN4         -1.0060     3.6350    -2.9560 hn         1 TBI       0.456800
     30 H5          -3.2890     3.1750    -1.1580 h4         1 TBI       0.139000
     31 H6          -2.6930     5.5010    -3.1040 ha         1 TBI       0.140000
     32 H77         -4.9280     4.6850    -1.1030 h4         1 TBI      -0.050800
     33 HS1          1.5830     1.3930    -3.2490 hs         1 TBI       0.222800
@<TRIPOS>BOND
     1     1     2 2   
     2     1     5 1   
     3     1    21 1   
     4     2     3 1   
     5     2    22 1   
     6     3     4 2   
     7     4     5 1   
     8     5     6 1   
     9     6     7 1   
    10     6    23 1   
    11     6    24 1   
    12     7     8 1   
    13     7    11 1   
    14     7    12 1   
    15     8     9 2   
    16     8    10 2   
    17     8    33 1   
    18    11    25 1   
    19    11    26 1   
    20    11    27 1   
    21    12    13 1   
    22    12    16 1   
    23    12    28 1   
    24    13    14 1   
    25    13    15 1   
    26    16    17 1   
    27    16    29 1   
    28    17    18 2   
    29    17    30 1   
    30    18    19 1   
    31    18    31 1   
    32    19    20 2   
    33    19    32 1   
@<TRIPOS>SUBSTRUCTURE
     1 TBI         1 TEMP              0 ****  ****    0 ROOT
