@<TRIPOS>MOLECULE
TBJ
   35    36     1     0     0
SMALL
No Charge or Current Charge


@<TRIPOS>ATOM
      1 C4          23.6880     7.5250    55.0270 c5         1 TBJ      -0.097400
      2 C5          23.5340     3.8460    55.0370 c          1 TBJ       0.647100
      3 C6          22.4280     1.5930    55.1350 c3         1 TBJ       0.111000
      4 N1          22.4310     3.0600    55.2260 ns         1 TBJ      -0.528900
      5 C7          23.2670     0.8740    56.2220 c5         1 TBJ       0.135300
      6 C8          22.8630     1.1750    57.6830 c5         1 TBJ      -0.110400
      7 C9          23.6070     0.0260    58.4190 c5         1 TBJ      -0.113400
      8 C10         23.6300    -1.1180    57.3580 c5         1 TBJ       0.155600
      9 O           24.6270     3.4030    54.7240 o          1 TBJ      -0.636100
     10 N           23.2600     5.1750    55.2340 ns         1 TBJ      -0.509900
     11 C3          24.3590     6.1360    55.1040 c5         1 TBJ       0.112700
     12 C2          25.0160     6.2340    56.5020 c5         1 TBJ      -0.097400
     13 C1          25.7360     7.6120    56.4080 c5         1 TBJ      -0.077400
     14 C           24.8920     8.4420    55.3800 c5         1 TBJ      -0.077400
     15 O1          23.0640    -0.5480    56.1570 os         1 TBJ      -0.459000
     16 H1          22.8770     7.6430    55.7570 hc         1 TBJ       0.046950
     17 H2          23.2730     7.7390    54.0350 hc         1 TBJ       0.046950
     18 H3          21.3890     1.2460    55.2060 h1         1 TBJ       0.065700
     19 H4          22.8080     1.3020    54.1460 h1         1 TBJ       0.065700
     20 H5          21.5700     3.5270    55.4780 hn         1 TBJ       0.302500
     21 H6          24.3320     1.0900    56.0550 h1         1 TBJ       0.070700
     22 H7          23.1840     2.1690    58.0160 hc         1 TBJ       0.049700
     23 H8          21.7770     1.1090    57.8200 hc         1 TBJ       0.049700
     24 H9          23.0990    -0.2730    59.3430 hc         1 TBJ       0.055700
     25 H10         24.6270     0.3200    58.6910 hc         1 TBJ       0.055700
     26 H11         23.0300    -1.9870    57.6620 h1         1 TBJ       0.044200
     27 H12         24.6560    -1.4540    57.1520 h1         1 TBJ       0.044200
     28 H13         22.3150     5.4320    55.4850 hn         1 TBJ       0.294500
     29 H14         25.0670     5.9400    54.2850 h1         1 TBJ       0.085700
     30 H15         25.7110     5.4100    56.7010 hc         1 TBJ       0.046950
     31 H16         24.2740     6.2360    57.3110 hc         1 TBJ       0.046950
     32 H17         26.7670     7.4950    56.0550 hc         1 TBJ       0.044200
     33 H18         25.7900     8.1030    57.3860 hc         1 TBJ       0.044200
     34 H19         25.4870     8.6680    54.4870 hc         1 TBJ       0.044200
     35 H20         24.5640     9.4030    55.7930 hc         1 TBJ       0.044200
@<TRIPOS>BOND
     1     1    11 1   
     2     1    14 1   
     3     1    16 1   
     4     1    17 1   
     5     2     4 1   
     6     2     9 2   
     7     2    10 1   
     8     3     4 1   
     9     3     5 1   
    10     3    18 1   
    11     3    19 1   
    12     4    20 1   
    13     5     6 1   
    14     5    15 1   
    15     5    21 1   
    16     6     7 1   
    17     6    22 1   
    18     6    23 1   
    19     7     8 1   
    20     7    24 1   
    21     7    25 1   
    22     8    15 1   
    23     8    26 1   
    24     8    27 1   
    25    10    11 1   
    26    10    28 1   
    27    11    12 1   
    28    11    29 1   
    29    12    13 1   
    30    12    30 1   
    31    12    31 1   
    32    13    14 1   
    33    13    32 1   
    34    13    33 1   
    35    14    34 1   
    36    14    35 1   
@<TRIPOS>SUBSTRUCTURE
     1 TBJ         1 TEMP              0 ****  ****    0 ROOT
