@<TRIPOS>MOLECULE
TBJ
   35    36     1     0     0
SMALL
bcc


@<TRIPOS>ATOM
      1 C4          23.5790     7.5920    55.0910 c5         1 TBJ      -0.097400
      2 C5          23.5470     3.8570    55.0230 c          1 TBJ       0.781100
      3 C6          22.7590     1.5390    55.2090 c3         1 TBJ       0.111000
      4 N1          22.5800     2.9610    55.3580 ns         1 TBJ      -0.595900
      5 C7          23.5660     0.9260    56.3490 c5         1 TBJ       0.112100
      6 C8          22.9150     1.0740    57.7220 c5         1 TBJ      -0.110400
      7 C9          23.3610    -0.2000    58.4290 c5         1 TBJ      -0.113400
      8 C10         23.3330    -1.2020    57.2850 c5         1 TBJ       0.132400
      9 O           24.5880     3.5220    54.4660 o          1 TBJ      -0.636100
     10 N           23.2490     5.1540    55.3090 ns         1 TBJ      -0.576900
     11 C3          24.2220     6.2100    55.1840 c5         1 TBJ       0.112700
     12 C2          25.1860     6.3660    56.3620 c5         1 TBJ      -0.097400
     13 C1          25.7890     7.7610    56.1640 c5         1 TBJ      -0.077400
     14 C           24.7440     8.5570    55.3400 c5         1 TBJ      -0.077400
     15 O1          23.7000    -0.4730    56.1230 os         1 TBJ      -0.412600
     16 H1          22.8240     7.6940    55.8780 hc         1 TBJ       0.046950
     17 H2          23.0780     7.7610    54.1370 hc         1 TBJ       0.046950
     18 H3          21.7690     1.0790    55.1810 h1         1 TBJ       0.065700
     19 H4          23.2380     1.3270    54.2510 h1         1 TBJ       0.065700
     20 H5          21.7760     3.2760    55.8730 hn         1 TBJ       0.302500
     21 H6          24.5640     1.3810    56.3590 h1         1 TBJ       0.070700
     22 H7          23.2260     1.9850    58.2320 hc         1 TBJ       0.049700
     23 H8          21.8240     1.0970    57.6330 hc         1 TBJ       0.049700
     24 H9          22.7100    -0.4890    59.2540 hc         1 TBJ       0.055700
     25 H10         24.3730    -0.0890    58.8230 hc         1 TBJ       0.055700
     26 H11         22.3280    -1.6260    57.1660 h1         1 TBJ       0.044200
     27 H12         24.0310    -2.0310    57.4250 h1         1 TBJ       0.044200
     28 H13         22.4590     5.3430    55.9080 hn         1 TBJ       0.294500
     29 H14         24.7990     6.0310    54.2730 h1         1 TBJ       0.085700
     30 H15         25.9330     5.5730    56.4020 hc         1 TBJ       0.046950
     31 H16         24.6100     6.3240    57.2920 hc         1 TBJ       0.046950
     32 H17         26.7310     7.6960    55.6170 hc         1 TBJ       0.044200
     33 H18         26.0150     8.2410    57.1160 hc         1 TBJ       0.044200
     34 H19         25.1770     8.8790    54.3920 hc         1 TBJ       0.044200
     35 H20         24.4140     9.4600    55.8550 hc         1 TBJ       0.044200
@<TRIPOS>BOND
     1     1    11 1   
     2     1    14 1   
     3     1    16 1   
     4     1    17 1   
     5     2     4 1   
     6     2     9 2   
     7     2    10 1   
     8     3     4 1   
     9     3     5 1   
    10     3    18 1   
    11     3    19 1   
    12     4    20 1   
    13     5     6 1   
    14     5    15 1   
    15     5    21 1   
    16     6     7 1   
    17     6    22 1   
    18     6    23 1   
    19     7     8 1   
    20     7    24 1   
    21     7    25 1   
    22     8    15 1   
    23     8    26 1   
    24     8    27 1   
    25    10    11 1   
    26    10    28 1   
    27    11    12 1   
    28    11    29 1   
    29    12    13 1   
    30    12    30 1   
    31    12    31 1   
    32    13    14 1   
    33    13    32 1   
    34    13    33 1   
    35    14    34 1   
    36    14    35 1   
@<TRIPOS>SUBSTRUCTURE
     1 TBJ         1 TEMP              0 ****  ****    0 ROOT
