@<TRIPOS>MOLECULE
TBK
   86    90     1     0     0
SMALL
abcg2


@<TRIPOS>ATOM
      1 C1         -14.6220   -20.0620    28.2800 c3         1 TBK       0.026700
      2 C3         -17.9520   -20.9160    26.6110 c6         1 TBK       0.110700
      3 C5         -19.2720   -25.0150    26.5920 c3         1 TBK      -0.344100
      4 C6         -19.8260   -21.7600    24.5400 c6         1 TBK       0.216800
      5 N2         -18.9890   -22.6850    25.3030 n3         1 TBK      -0.770500
      6 N4         -10.6940   -13.7390    18.9360 nc         1 TBK      -0.293600
      7 C28        -13.8410   -12.1570    18.8240 cc         1 TBK      -0.091000
      8 C27        -11.6950   -13.1120    18.3310 cd         1 TBK      -0.062000
      9 C26        -11.0610   -13.8370    20.2210 cc         1 TBK       0.013600
     10 C29        -13.9720   -11.7900    17.5230 cd         1 TBK      -0.150000
     11 C30        -12.9560   -12.0830    16.5840 cc         1 TBK      -0.089000
     12 C24        -13.1140   -13.1960    21.6710 c          1 TBK       0.659300
     13 C20        -13.5740   -16.2250    26.6420 ca         1 TBK      -0.069000
     14 C13         -9.4080   -20.0040    29.9720 c6         1 TBK      -0.073900
     15 C12        -10.6790   -19.2250    30.2910 c6         1 TBK      -0.070900
     16 C9         -14.5200   -19.7530    29.7770 c3         1 TBK      -0.081400
     17 N          -14.4580   -18.8560    27.5060 ns         1 TBK      -0.515900
     18 C          -13.6620   -18.7510    26.4200 c          1 TBK       0.612700
     19 O          -13.1110   -19.7120    25.9060 o          1 TBK      -0.584100
     20 C10        -13.1820   -19.1490    30.1920 c3         1 TBK      -0.068400
     21 C11        -11.9400   -19.9730    29.8530 c6         1 TBK      -0.065700
     22 C14         -9.4440   -21.3950    30.5960 c6         1 TBK      -0.074400
     23 C15        -10.6940   -22.1540    30.1640 c6         1 TBK      -0.073900
     24 C16        -11.9660   -21.3700    30.4730 c6         1 TBK      -0.070900
     25 C17        -13.5130   -17.3760    25.8570 ca         1 TBK      -0.158600
     26 C18        -13.2640   -17.2440    24.4940 ca         1 TBK      -0.069000
     27 C19        -13.1150   -15.9910    23.9200 ca         1 TBK      -0.112000
     28 C2         -15.9190   -20.8190    27.9830 c          1 TBK       0.588100
     29 C21        -13.4080   -14.9770    26.0670 ca         1 TBK      -0.112000
     30 C22        -13.1880   -14.8420    24.6980 ca         1 TBK      -0.081300
     31 C23        -13.0570   -13.4560    24.1140 c3         1 TBK       0.142300
     32 C25        -12.3020   -13.2770    20.4550 cd         1 TBK      -0.287300
     33 C31        -11.8270   -12.7370    16.9820 cd         1 TBK      -0.086000
     34 C4         -17.7050   -22.1300    25.7120 c6         1 TBK       0.191800
     35 C7         -20.1000   -20.5310    25.3930 c6         1 TBK      -0.076400
     36 C8         -18.8100   -19.8900    25.8850 c6         1 TBK      -0.087400
     37 N1         -16.6990   -20.3180    27.0160 ns         1 TBK      -0.500900
     38 N3         -12.4360   -13.4130    22.8170 ns         1 TBK      -0.500900
     39 N5         -12.7110   -12.8140    19.2190 na         1 TBK       0.171100
     40 O1         -20.2310   -24.5710    24.1850 o          1 TBK      -0.542500
     41 O2         -17.7510   -24.7710    24.4740 o          1 TBK      -0.542500
     42 O3         -16.1940   -21.8300    28.6150 o          1 TBK      -0.609100
     43 O4         -14.3150   -12.9550    21.6370 o          1 TBK      -0.618100
     44 S          -19.0380   -24.3080    24.9790 s6         1 TBK       1.208100
     45 H1         -13.8190   -20.7490    28.0040 h1         1 TBK       0.111700
     46 H2         -18.4830   -21.2580    27.5050 h1         1 TBK       0.078700
     47 H3         -19.2890   -26.0990    26.4840 h1         1 TBK       0.104367
     48 H4         -18.4510   -24.7270    27.2460 h1         1 TBK       0.104367
     49 H5         -20.2160   -24.6630    26.9990 h1         1 TBK       0.104367
     50 H6         -20.7630   -22.2440    24.2780 h1         1 TBK       0.059700
     51 H7         -19.3260   -21.4690    23.6090 h1         1 TBK       0.059700
     52 H9         -10.4270   -14.3280    20.9460 h4         1 TBK       0.223000
     53 H10        -14.8690   -11.2700    17.2190 ha         1 TBK       0.136000
     54 H11        -13.0780   -11.7850    15.5520 ha         1 TBK       0.128000
     55 H12        -13.7180   -16.2860    27.7140 ha         1 TBK       0.125000
     56 H13         -9.3030   -20.0970    28.8850 hc         1 TBK       0.040200
     57 H14         -8.5310   -19.4530    30.3210 hc         1 TBK       0.040200
     58 H15        -10.7310   -19.0440    31.3710 hc         1 TBK       0.037700
     59 H16        -10.6500   -18.2410    29.8130 hc         1 TBK       0.037700
     60 H17        -15.3240   -19.0620    30.0520 hc         1 TBK       0.058700
     61 H18        -14.7100   -20.6720    30.3310 hc         1 TBK       0.058700
     62 H19        -14.9200   -18.0290    27.8530 hn         1 TBK       0.315500
     63 H20        -13.2100   -18.9890    31.2750 hc         1 TBK       0.037200
     64 H21        -13.0740   -18.1540    29.7480 hc         1 TBK       0.037200
     65 H22        -11.8770   -20.0930    28.7620 hc         1 TBK       0.054700
     66 H23         -8.5460   -21.9570    30.3260 hc         1 TBK       0.037700
     67 H24         -9.4370   -21.3000    31.6870 hc         1 TBK       0.037700
     68 H25        -10.6440   -22.3440    29.0860 hc         1 TBK       0.040200
     69 H26        -10.7310   -23.1330    30.6480 hc         1 TBK       0.040200
     70 H27        -12.0830   -21.2730    31.5590 hc         1 TBK       0.037700
     71 H28        -12.8340   -21.9320    30.1170 hc         1 TBK       0.037700
     72 H29        -13.1980   -18.1270    23.8720 ha         1 TBK       0.125000
     73 H30        -12.9290   -15.9180    22.8560 ha         1 TBK       0.121000
     74 H31        -13.4420   -14.0940    26.6950 ha         1 TBK       0.121000
     75 H32        -12.4830   -12.8300    24.8000 h1         1 TBK       0.070200
     76 H33        -14.0450   -13.0000    24.0380 h1         1 TBK       0.070200
     77 H34        -11.0260   -12.9760    16.2970 ha         1 TBK       0.147000
     78 H35        -17.1140   -21.8230    24.8400 h1         1 TBK       0.064200
     79 H36        -17.1280   -22.8720    26.2620 h1         1 TBK       0.064200
     80 H37        -20.7200   -20.8200    26.2450 hc         1 TBK       0.052700
     81 H38        -20.6740   -19.8140    24.8030 hc         1 TBK       0.052700
     82 H39        -18.2480   -19.4940    25.0310 hc         1 TBK       0.046700
     83 H40        -19.0280   -19.0490    26.5460 hc         1 TBK       0.046700
     84 H41        -16.3860   -19.4960    26.5230 hn         1 TBK       0.322500
     85 H42        -11.4380   -13.5390    22.7850 hn         1 TBK       0.322500
     86 H8         -14.5850   -11.9610    19.5770 h4         1 TBK       0.177000
@<TRIPOS>BOND
     1     1    16 1   
     2     1    17 1   
     3     1    28 1   
     4     1    45 1   
     5     2    34 1   
     6     2    36 1   
     7     2    37 1   
     8     2    46 1   
     9     3    44 1   
    10     3    47 1   
    11     3    48 1   
    12     3    49 1   
    13     4     5 1   
    14     4    35 1   
    15     4    50 1   
    16     4    51 1   
    17     5    34 1   
    18     5    44 1   
    19     6     8 2   
    20     6     9 1   
    21     7    10 2   
    22     7    39 1   
    23     7    86 1   
    24     8    33 1   
    25     8    39 1   
    26     9    32 2   
    27     9    52 1   
    28    10    11 1   
    29    10    53 1   
    30    11    33 2   
    31    11    54 1   
    32    12    32 1   
    33    12    38 1   
    34    12    43 2   
    35    13    25 ar  
    36    13    29 ar  
    37    13    55 1   
    38    14    15 1   
    39    14    22 1   
    40    14    56 1   
    41    14    57 1   
    42    15    21 1   
    43    15    58 1   
    44    15    59 1   
    45    16    20 1   
    46    16    60 1   
    47    16    61 1   
    48    17    18 1   
    49    17    62 1   
    50    18    19 2   
    51    18    25 1   
    52    20    21 1   
    53    20    63 1   
    54    20    64 1   
    55    21    24 1   
    56    21    65 1   
    57    22    23 1   
    58    22    66 1   
    59    22    67 1   
    60    23    24 1   
    61    23    68 1   
    62    23    69 1   
    63    24    70 1   
    64    24    71 1   
    65    25    26 ar  
    66    26    27 ar  
    67    26    72 1   
    68    27    30 ar  
    69    27    73 1   
    70    28    37 1   
    71    28    42 2   
    72    29    30 ar  
    73    29    74 1   
    74    30    31 1   
    75    31    38 1   
    76    31    75 1   
    77    31    76 1   
    78    32    39 1   
    79    33    77 1   
    80    34    78 1   
    81    34    79 1   
    82    35    36 1   
    83    35    80 1   
    84    35    81 1   
    85    36    82 1   
    86    36    83 1   
    87    37    84 1   
    88    38    85 1   
    89    40    44 2   
    90    41    44 2   
@<TRIPOS>SUBSTRUCTURE
     1 TBK         1 TEMP              0 ****  ****    0 ROOT
