@<TRIPOS>MOLECULE
TBK
   86    90     1     0     0
SMALL
No Charge or Current Charge


@<TRIPOS>ATOM
      1 C1         -14.6330   -20.0360    28.2660 c3         1 TBK       0.026700
      2 C3         -17.5280   -20.7050    25.7250 c6         1 TBK       0.110700
      3 C5         -18.2350   -25.1650    25.0530 c3         1 TBK      -0.344100
      4 C6         -18.8360   -21.5320    23.2020 c6         1 TBK       0.216800
      5 N2         -18.4310   -22.5340    24.2210 n3         1 TBK      -0.770500
      6 N4         -13.6310   -14.1600    18.5570 nc         1 TBK      -0.293600
      7 C28        -15.1060   -11.8920    20.8790 cc         1 TBK      -0.091000
      8 C27        -14.5000   -13.2380    18.9120 cd         1 TBK      -0.062000
      9 C26        -12.8700   -14.3790    19.6760 cc         1 TBK       0.013600
     10 C29        -16.0950   -11.3470    20.0580 cd         1 TBK      -0.150000
     11 C30        -16.2960   -11.7120    18.7330 cc         1 TBK      -0.089000
     12 C24        -12.6760   -13.5570    22.0980 c          1 TBK       0.659300
     13 C20        -13.0350   -16.7330    25.9010 ca         1 TBK      -0.069000
     14 C13         -9.8840   -19.5060    31.1570 c6         1 TBK      -0.073900
     15 C12        -11.1970   -18.6960    31.0280 c6         1 TBK      -0.070900
     16 C9         -14.8810   -19.4270    29.6710 c3         1 TBK      -0.081400
     17 N          -14.0630   -19.0150    27.3480 ns         1 TBK      -0.515900
     18 C          -12.9860   -19.2270    26.5110 c          1 TBK       0.612700
     19 O          -12.4910   -20.3380    26.3890 o          1 TBK      -0.584100
     20 C10        -13.6580   -18.7170    30.3110 c3         1 TBK      -0.068400
     21 C11        -12.3510   -19.5610    30.4480 c6         1 TBK      -0.065700
     22 C14        -10.0930   -20.7760    32.0160 c6         1 TBK      -0.074400
     23 C15        -11.2360   -21.6490    31.4460 c6         1 TBK      -0.073900
     24 C16        -12.5510   -20.8410    31.3120 c6         1 TBK      -0.070900
     25 C17        -12.4670   -18.0230    25.7540 ca         1 TBK      -0.158600
     26 C18        -11.3770   -18.1780    24.8670 ca         1 TBK      -0.069000
     27 C19        -10.8700   -17.0830    24.1480 ca         1 TBK      -0.112000
     28 C2         -15.9160   -20.7020    27.6850 c          1 TBK       0.588100
     29 C21        -12.5230   -15.6400    25.1800 ca         1 TBK      -0.112000
     30 C22        -11.4390   -15.8060    24.3010 ca         1 TBK      -0.081300
     31 C23        -10.8950   -14.6200    23.5190 c3         1 TBK       0.142300
     32 C25        -13.2710   -13.5840    20.7380 cd         1 TBK      -0.287300
     33 C31        -15.5210   -12.6620    18.1030 cd         1 TBK      -0.086000
     34 C4         -17.2570   -22.0630    25.0130 c6         1 TBK       0.191800
     35 C7         -19.1490   -20.1620    23.8500 c6         1 TBK      -0.076400
     36 C8         -17.9480   -19.6490    24.6770 c6         1 TBK      -0.087400
     37 N1         -16.3450   -20.2340    26.4620 ns         1 TBK      -0.500900
     38 N3         -11.6260   -14.4280    22.2650 ns         1 TBK      -0.500900
     39 N5         -14.3290   -12.8530    20.2230 na         1 TBK       0.171100
     40 O1         -19.5460   -24.4260    22.9100 o          1 TBK      -0.542500
     41 O2         -17.0110   -24.2080    22.8820 o          1 TBK      -0.542500
     42 O3         -16.5190   -21.5910    28.2720 o          1 TBK      -0.609100
     43 O4         -13.0690   -12.8340    23.0010 o          1 TBK      -0.618100
     44 S          -18.2860   -24.1310    23.6000 s6         1 TBK       1.208100
     45 H1         -13.9100   -20.8550    28.3730 h1         1 TBK       0.111700
     46 H2         -18.3530   -20.8440    26.4390 h1         1 TBK       0.078700
     47 H3         -18.2680   -26.2050    24.7130 h1         1 TBK       0.104367
     48 H4         -17.3040   -24.9570    25.5870 h1         1 TBK       0.104367
     49 H5         -19.1110   -24.9170    25.6600 h1         1 TBK       0.104367
     50 H6         -19.7360   -21.8640    22.6620 h1         1 TBK       0.059700
     51 H7         -18.0410   -21.4020    22.4510 h1         1 TBK       0.059700
     52 H9         -12.0690   -15.1120    19.6310 h4         1 TBK       0.223000
     53 H10        -16.7480   -10.5900    20.4840 ha         1 TBK       0.136000
     54 H11        -17.0930   -11.2330    18.1720 ha         1 TBK       0.128000
     55 H12        -13.8730   -16.5550    26.5700 ha         1 TBK       0.125000
     56 H13         -9.5240   -19.7890    30.1580 hc         1 TBK       0.040200
     57 H14         -9.1010   -18.8780    31.6050 hc         1 TBK       0.040200
     58 H15        -11.4840   -18.3030    32.0140 hc         1 TBK       0.037700
     59 H16        -11.0240   -17.8220    30.3840 hc         1 TBK       0.037700
     60 H17        -15.7020   -18.7020    29.6000 hc         1 TBK       0.058700
     61 H18        -15.2350   -20.2150    30.3470 hc         1 TBK       0.058700
     62 H19        -14.4000   -18.0640    27.4200 hn         1 TBK       0.315500
     63 H20        -13.9600   -18.3570    31.3030 hc         1 TBK       0.037200
     64 H21        -13.4420   -17.8130    29.7280 hc         1 TBK       0.037200
     65 H22        -12.0600   -19.8670    29.4340 hc         1 TBK       0.054700
     66 H23         -9.1620   -21.3580    32.0550 hc         1 TBK       0.037700
     67 H24        -10.3260   -20.4890    33.0510 hc         1 TBK       0.037700
     68 H25        -10.9440   -22.0440    30.4620 hc         1 TBK       0.040200
     69 H26        -11.3980   -22.5200    32.0950 hc         1 TBK       0.040200
     70 H27        -12.9160   -20.5640    32.3110 hc         1 TBK       0.037700
     71 H28        -13.3180   -21.4880    30.8680 hc         1 TBK       0.037700
     72 H29        -10.9170   -19.1550    24.7300 ha         1 TBK       0.125000
     73 H30        -10.0320   -17.2290    23.4690 ha         1 TBK       0.121000
     74 H31        -12.9750   -14.6580    25.3040 ha         1 TBK       0.121000
     75 H32         -9.8340   -14.7860    23.2860 h1         1 TBK       0.070200
     76 H33        -10.9560   -13.7100    24.1310 h1         1 TBK       0.070200
     77 H34        -15.6780   -12.9480    17.0670 ha         1 TBK       0.147000
     78 H35        -16.3740   -21.9560    24.3650 h1         1 TBK       0.064200
     79 H36        -16.9930   -22.7960    25.7880 h1         1 TBK       0.064200
     80 H37        -20.0320   -20.2590    24.4970 hc         1 TBK       0.052700
     81 H38        -19.4090   -19.4330    23.0710 hc         1 TBK       0.052700
     82 H39        -17.1070   -19.4260    24.0060 hc         1 TBK       0.046700
     83 H40        -18.2140   -18.7070    25.1760 hc         1 TBK       0.046700
     84 H41        -15.7780   -19.5040    26.0480 hn         1 TBK       0.322500
     85 H42        -11.3670   -14.9960    21.4710 hn         1 TBK       0.322500
     86 H8         -14.9080   -11.6440    21.9120 h4         1 TBK       0.177000
@<TRIPOS>BOND
     1     1    16 1   
     2     1    17 1   
     3     1    28 1   
     4     1    45 1   
     5     2    34 1   
     6     2    36 1   
     7     2    37 1   
     8     2    46 1   
     9     3    44 1   
    10     3    47 1   
    11     3    48 1   
    12     3    49 1   
    13     4     5 1   
    14     4    35 1   
    15     4    50 1   
    16     4    51 1   
    17     5    34 1   
    18     5    44 1   
    19     6     8 2   
    20     6     9 1   
    21     7    10 2   
    22     7    39 1   
    23     7    86 1   
    24     8    33 1   
    25     8    39 1   
    26     9    32 2   
    27     9    52 1   
    28    10    11 1   
    29    10    53 1   
    30    11    33 2   
    31    11    54 1   
    32    12    32 1   
    33    12    38 1   
    34    12    43 2   
    35    13    25 ar  
    36    13    29 ar  
    37    13    55 1   
    38    14    15 1   
    39    14    22 1   
    40    14    56 1   
    41    14    57 1   
    42    15    21 1   
    43    15    58 1   
    44    15    59 1   
    45    16    20 1   
    46    16    60 1   
    47    16    61 1   
    48    17    18 1   
    49    17    62 1   
    50    18    19 2   
    51    18    25 1   
    52    20    21 1   
    53    20    63 1   
    54    20    64 1   
    55    21    24 1   
    56    21    65 1   
    57    22    23 1   
    58    22    66 1   
    59    22    67 1   
    60    23    24 1   
    61    23    68 1   
    62    23    69 1   
    63    24    70 1   
    64    24    71 1   
    65    25    26 ar  
    66    26    27 ar  
    67    26    72 1   
    68    27    30 ar  
    69    27    73 1   
    70    28    37 1   
    71    28    42 2   
    72    29    30 ar  
    73    29    74 1   
    74    30    31 1   
    75    31    38 1   
    76    31    75 1   
    77    31    76 1   
    78    32    39 1   
    79    33    77 1   
    80    34    78 1   
    81    34    79 1   
    82    35    36 1   
    83    35    80 1   
    84    35    81 1   
    85    36    82 1   
    86    36    83 1   
    87    37    84 1   
    88    38    85 1   
    89    40    44 2   
    90    41    44 2   
@<TRIPOS>SUBSTRUCTURE
     1 TBK         1 TEMP              0 ****  ****    0 ROOT
