@<TRIPOS>MOLECULE
TBL
   29    29     1     0     0
SMALL
bcc


@<TRIPOS>ATOM
      1 O4           0.7580    -2.7480     0.1940 o          1 TBL      -0.642300
      2 S1           0.7810    -1.3620     0.6450 sy         1 TBL       1.317200
      3 O3           1.0640    -1.0590     2.0420 o          1 TBL      -0.642300
      4 N1           1.8990    -0.6160    -0.2570 n7         1 TBL      -0.835100
      5 C2           2.4320     0.7180    -0.0160 c3         1 TBL       0.077500
      6 C10          1.3780     1.8220     0.0350 c3         1 TBL      -0.100100
      7 C1           3.4410     1.0200    -1.1590 c          1 TBL       0.935600
      8 O2           3.4180     0.2630    -2.1490 o          1 TBL      -0.821800
      9 O1           4.1590     2.0160    -0.9830 o          1 TBL      -0.821800
     10 C3          -0.8090    -0.6810     0.2680 ca         1 TBL      -0.318500
     11 C4          -1.3270    -0.8460    -1.0150 ca         1 TBL       0.006500
     12 C5          -2.5530    -0.3070    -1.3350 ca         1 TBL      -0.219000
     13 C6          -3.2860     0.4010    -0.3740 ca         1 TBL       0.170100
     14 C8          -2.7690     0.5520     0.9110 ca         1 TBL      -0.219000
     15 C9          -1.5310     0.0090     1.2250 ca         1 TBL       0.006500
     16 O5          -4.4650     0.8910    -0.7760 os         1 TBL      -0.321900
     17 C7          -5.2360     1.6490     0.1390 c3         1 TBL       0.128700
     18 HN1          1.9840    -0.9130    -1.2250 hn         1 TBL       0.472800
     19 H2           2.9840     0.7100     0.9270 h1         1 TBL       0.063700
     20 H10          1.8670     2.7900     0.1310 hc         1 TBL       0.027700
     21 H10A         0.7740     1.8300    -0.8740 hc         1 TBL       0.027700
     22 H10B         0.7060     1.7110     0.8850 hc         1 TBL       0.027700
     23 H4          -0.7770    -1.3880    -1.7740 ha         1 TBL       0.151000
     24 H5          -2.9580    -0.4290    -2.3320 ha         1 TBL       0.133000
     25 H8          -3.3070     1.0890     1.6790 ha         1 TBL       0.133000
     26 H9          -1.1410     0.1400     2.2260 ha         1 TBL       0.151000
     27 H7          -5.5330     1.0580     1.0090 h1         1 TBL       0.037700
     28 H7A         -4.6990     2.5380     0.4800 h1         1 TBL       0.037700
     29 H7B         -6.1290     1.9590    -0.3950 h1         1 TBL       0.037700
@<TRIPOS>BOND
     1     1     2 2   
     2     2     3 2   
     3     2     4 1   
     4     2    10 1   
     5     4     5 1   
     6     4    18 1   
     7     5     6 1   
     8     5     7 1   
     9     5    19 1   
    10     6    20 1   
    11     6    21 1   
    12     6    22 1   
    13     7     8 1   
    14     7     9 1   
    15    10    11 ar  
    16    10    15 ar  
    17    11    12 ar  
    18    11    23 1   
    19    12    13 ar  
    20    12    24 1   
    21    13    14 ar  
    22    13    16 1   
    23    14    15 ar  
    24    14    25 1   
    25    15    26 1   
    26    16    17 1   
    27    17    27 1   
    28    17    28 1   
    29    17    29 1   
@<TRIPOS>SUBSTRUCTURE
     1 TBL         1 TEMP              0 ****  ****    0 ROOT
