@<TRIPOS>MOLECULE
TBL
   29    29     1     0     0
SMALL
No Charge or Current Charge


@<TRIPOS>ATOM
      1 O4           1.0190    -2.6140     0.1370 o          1 TBL      -0.571500
      2 S1           0.7890    -1.2360     0.5790 sy         1 TBL       1.175600
      3 O3           1.1340    -0.7720     1.9260 o          1 TBL      -0.571500
      4 N1           1.6100    -0.2690    -0.5080 n7         1 TBL      -0.890300
      5 C2           2.6580     0.7140    -0.0560 c3         1 TBL       0.077500
      6 C10          1.9880     1.9830     0.5330 c3         1 TBL      -0.100100
      7 C1           3.6750     1.1190    -1.1960 c          1 TBL       0.725000
      8 O2           3.2470     1.6920    -2.1940 o          1 TBL      -0.716500
      9 O1           4.8540     0.8140    -1.0590 o          1 TBL      -0.716500
     10 C3          -0.8860    -0.7260     0.1920 ca         1 TBL      -0.318500
     11 C4          -1.5920    -1.3650    -0.8440 ca         1 TBL       0.024500
     12 C5          -2.9020    -0.9600    -1.1500 ca         1 TBL      -0.201000
     13 C6          -3.5140     0.0780    -0.4320 ca         1 TBL       0.170100
     14 C8          -2.8050     0.7180     0.6070 ca         1 TBL      -0.201000
     15 C9          -1.4950     0.3170     0.9190 ca         1 TBL       0.024500
     16 O5          -4.8020     0.4300    -0.7800 os         1 TBL      -0.345100
     17 C7          -5.5180     1.4800    -0.1070 c3         1 TBL       0.151900
     18 HN1          0.8470     0.2260    -0.9670 hn         1 TBL       0.528000
     19 H2           3.2760     0.2580     0.7310 h1         1 TBL       0.063700
     20 H10          2.7540     2.7100     0.8280 hc         1 TBL       0.027700
     21 H10A         1.3340     2.4620    -0.2050 hc         1 TBL       0.027700
     22 H10B         1.3920     1.7560     1.4240 hc         1 TBL       0.027700
     23 H4          -1.1340    -2.1730    -1.4150 ha         1 TBL       0.133000
     24 H5          -3.4460    -1.4530    -1.9500 ha         1 TBL       0.115000
     25 H8          -3.2510     1.5240     1.1820 ha         1 TBL       0.115000
     26 H9          -0.9610     0.8200     1.7240 ha         1 TBL       0.133000
     27 H7          -5.6330     1.2510     0.9600 h1         1 TBL       0.037700
     28 H7A         -4.9920     2.4380    -0.2080 h1         1 TBL       0.037700
     29 H7B         -6.5200     1.5950    -0.5400 h1         1 TBL       0.037700
@<TRIPOS>BOND
     1     1     2 2   
     2     2     3 2   
     3     2     4 1   
     4     2    10 1   
     5     4     5 1   
     6     4    18 1   
     7     5     6 1   
     8     5     7 1   
     9     5    19 1   
    10     6    20 1   
    11     6    21 1   
    12     6    22 1   
    13     7     8 1   
    14     7     9 1   
    15    10    11 ar  
    16    10    15 ar  
    17    11    12 ar  
    18    11    23 1   
    19    12    13 ar  
    20    12    24 1   
    21    13    14 ar  
    22    13    16 1   
    23    14    15 ar  
    24    14    25 1   
    25    15    26 1   
    26    16    17 1   
    27    17    27 1   
    28    17    28 1   
    29    17    29 1   
@<TRIPOS>SUBSTRUCTURE
     1 TBL         1 TEMP              0 ****  ****    0 ROOT
