@<TRIPOS>MOLECULE
TBN
   33    35     1     0     0
SMALL
No Charge or Current Charge


@<TRIPOS>ATOM
      1 O5          -3.9680    -1.1350     2.2490 oh         1 TBN      -0.701000
      2 C5          -3.7360    -1.1250     0.8270 c3         1 TBN       0.163600
      3 C4          -2.9220     0.1250     0.3900 c5         1 TBN       0.161300
      4 O4          -1.5490     0.0210     0.8320 os         1 TBN      -0.427000
      5 C1          -0.7260     0.8760    -0.0050 c5         1 TBN       0.313300
      6 N9           0.4860     0.1280    -0.3800 na         1 TBN      -0.210400
      7 C8           0.6410    -0.6540    -1.5540 cc         1 TBN      -0.166100
      8 C7           1.9370    -1.1320    -1.4930 cd         1 TBN      -0.213200
      9 C9           2.5810    -0.6540    -0.2970 ca         1 TBN      -0.257800
     10 C6           3.8600    -0.8350     0.2360 ca         1 TBN       0.431900
     11 N1           4.2000    -0.2560     1.3970 nb         1 TBN      -0.302000
     12 C2           3.2380     0.4910     1.9940 ca         1 TBN       0.178900
     13 N3           1.9790     0.7110     1.5380 nb         1 TBN      -0.229000
     14 C10          1.6630     0.1170     0.3690 ca         1 TBN       0.147500
     15 N6           4.8150    -1.5780    -0.3750 nv         1 TBN      -1.071900
     16 C11         -1.6500     1.3820    -1.1770 c5         1 TBN       0.102300
     17 O2          -2.2350     2.6710    -0.9360 oh         1 TBN      -0.700000
     18 C3          -2.7790     0.3130    -1.1510 c5         1 TBN       0.088300
     19 O3          -3.9680     0.8130    -1.7950 oh         1 TBN      -0.708000
     20 H5          -4.4290    -1.9810     2.4590 ho         1 TBN       0.505000
     21 H5'1        -4.6970    -1.1200     0.2950 h1         1 TBN       0.024200
     22 H5'2        -3.1930    -2.0290     0.5190 h1         1 TBN       0.024200
     23 H4          -3.3760     1.0150     0.8490 h1         1 TBN       0.092700
     24 H1          -0.3750     1.7410     0.5730 h2         1 TBN       0.129700
     25 H8          -0.1390    -0.8050    -2.2950 h4         1 TBN       0.220000
     26 H7           2.3890    -1.7800    -2.2420 ha         1 TBN       0.200000
     27 H2           3.5040     0.9650     2.9370 h5         1 TBN       0.044100
     28 HN61         5.7740    -1.4700    -0.0570 hn         1 TBN       0.494500
     29 HN62         4.6860    -1.8120    -1.3550 hn         1 TBN       0.494500
     30 H9          -1.1190     1.3810    -2.1400 h1         1 TBN       0.074700
     31 H6          -3.1590     2.5560    -1.2790 ho         1 TBN       0.523000
     32 H3          -2.4420    -0.6200    -1.6240 h1         1 TBN       0.053700
     33 H10         -4.4970     0.0350    -2.0980 ho         1 TBN       0.517000
@<TRIPOS>BOND
     1     1     2 1   
     2     1    20 1   
     3     2     3 1   
     4     2    21 1   
     5     2    22 1   
     6     3     4 1   
     7     3    18 1   
     8     3    23 1   
     9     4     5 1   
    10     5     6 1   
    11     5    16 1   
    12     5    24 1   
    13     6     7 1   
    14     6    14 1   
    15     7     8 2   
    16     7    25 1   
    17     8     9 1   
    18     8    26 1   
    19     9    10 ar  
    20     9    14 ar  
    21    10    11 ar  
    22    10    15 1   
    23    11    12 ar  
    24    12    13 ar  
    25    12    27 1   
    26    13    14 ar  
    27    15    28 1   
    28    15    29 1   
    29    16    17 1   
    30    16    18 1   
    31    16    30 1   
    32    17    31 1   
    33    18    19 1   
    34    18    32 1   
    35    19    33 1   
@<TRIPOS>SUBSTRUCTURE
     1 TBN         1 TEMP              0 ****  ****    0 ROOT
