@<TRIPOS>MOLECULE
TBN
   33    35     1     0     0
SMALL
bcc


@<TRIPOS>ATOM
      1 O5          -4.2590    -1.8680     1.0780 oh         1 TBN      -0.578800
      2 C5          -3.6840    -1.3260    -0.0850 c3         1 TBN       0.140400
      3 C4          -3.0320    -0.0090     0.2510 c5         1 TBN       0.138100
      4 O4          -1.9410    -0.1970     1.1500 os         1 TBN      -0.380600
      5 C1          -0.8480     0.5990     0.7970 c5         1 TBN       0.260800
      6 N9           0.2540    -0.2510     0.3700 na         1 TBN      -0.181100
      7 C8           0.1880    -1.5330    -0.1330 cc         1 TBN      -0.116100
      8 C7           1.4370    -1.9600    -0.4740 cd         1 TBN      -0.163200
      9 C9           2.3240    -0.8860    -0.1710 ca         1 TBN      -0.388400
     10 C6           3.7050    -0.6240    -0.2570 ca         1 TBN       0.760200
     11 N1           4.1700     0.5620     0.1430 nb         1 TBN      -0.828000
     12 C2           3.3080     1.4600     0.6170 ca         1 TBN       0.704900
     13 N3           2.0020     1.3450     0.7500 nb         1 TBN      -0.755000
     14 C10          1.5500     0.1540     0.3470 ca         1 TBN       0.475800
     15 N6           4.5830    -1.5300    -0.7090 nv         1 TBN      -0.961500
     16 C11         -1.3220     1.5320    -0.3180 c5         1 TBN       0.079100
     17 O2          -1.8630     2.6770     0.2820 oh         1 TBN      -0.577800
     18 C3          -2.4220     0.6840    -0.9650 c5         1 TBN       0.065100
     19 O3          -3.3940     1.4360    -1.6360 oh         1 TBN      -0.585800
     20 H5          -4.6850    -2.6980     0.8430 ho         1 TBN       0.406000
     21 H5'1        -4.4350    -1.1300    -0.8620 h1         1 TBN       0.024200
     22 H5'2        -2.9390    -2.0010    -0.5290 h1         1 TBN       0.024200
     23 H4          -3.7770     0.6510     0.7140 h1         1 TBN       0.092700
     24 H1          -0.4900     1.1690     1.6590 h2         1 TBN       0.129700
     25 H8          -0.7460    -2.0620    -0.2010 h4         1 TBN       0.170000
     26 H7           1.6770    -2.9300    -0.8800 ha         1 TBN       0.150000
     27 H2           3.7410     2.4050     0.9270 h5         1 TBN       0.044100
     28 HN61         5.5390    -1.2580    -0.8590 hn         1 TBN       0.439300
     29 HN62         4.2730    -2.3790    -1.1480 hn         1 TBN       0.439300
     30 H9          -0.5100     1.7770    -1.0140 h1         1 TBN       0.074700
     31 H6          -2.5460     3.0230    -0.3050 ho         1 TBN       0.424000
     32 H3          -1.9610    -0.0600    -1.6280 h1         1 TBN       0.053700
     33 H10         -3.1050     1.5840    -2.5420 ho         1 TBN       0.418000
@<TRIPOS>BOND
     1     1     2 1   
     2     1    20 1   
     3     2     3 1   
     4     2    21 1   
     5     2    22 1   
     6     3     4 1   
     7     3    18 1   
     8     3    23 1   
     9     4     5 1   
    10     5     6 1   
    11     5    16 1   
    12     5    24 1   
    13     6     7 1   
    14     6    14 1   
    15     7     8 2   
    16     7    25 1   
    17     8     9 1   
    18     8    26 1   
    19     9    10 ar  
    20     9    14 ar  
    21    10    11 ar  
    22    10    15 1   
    23    11    12 ar  
    24    12    13 ar  
    25    12    27 1   
    26    13    14 ar  
    27    15    28 1   
    28    15    29 1   
    29    16    17 1   
    30    16    18 1   
    31    16    30 1   
    32    17    31 1   
    33    18    19 1   
    34    18    32 1   
    35    19    33 1   
@<TRIPOS>SUBSTRUCTURE
     1 TBN         1 TEMP              0 ****  ****    0 ROOT
