@<TRIPOS>MOLECULE
TBO
   41    43     1     0     0
SMALL
No Charge or Current Charge


@<TRIPOS>ATOM
      1 N1         144.0640   -26.0910    72.2840 ns         1 TBO      -0.414600
      2 C1A        144.3630   -26.2890    73.6280 ca         1 TBO      -0.018400
      3 C2         144.9400   -25.3030    71.5940 cs         1 TBO       0.413400
      4 S2         144.9130   -24.9660    69.9570 s          1 TBO      -0.622400
      5 N3         145.8650   -24.9760    72.5790 n          1 TBO      -0.191000
      6 C3A        145.5420   -25.6110    73.8240 ca         1 TBO       0.005600
      7 C4         147.2050   -24.4060    72.3310 c3         1 TBO       0.099000
      8 C5         147.5770   -23.1580    73.1880 c3         1 TBO       0.202500
      9 N6         147.0530   -23.1870    74.5890 n3         1 TBO      -0.787600
     10 C7         147.2480   -24.4670    75.3240 c3         1 TBO       0.243100
     11 C7A        146.0570   -25.4010    75.1150 ca         1 TBO      -0.047300
     12 C8         145.3970   -26.0690    76.1840 ca         1 TBO       0.125000
     13 Cl8        145.9760   -25.9430    77.8470 cl         1 TBO      -0.200000
     14 C9         144.2310   -26.8420    75.9480 ca         1 TBO      -0.097000
     15 C10        143.6780   -26.9420    74.6530 ca         1 TBO      -0.094000
     16 C11        149.1060   -22.9180    73.1210 c3         1 TBO      -0.130100
     17 C12        147.3050   -21.9650    75.3850 c3         1 TBO       0.244000
     18 C13        146.3230   -21.8570    76.5340 c2         1 TBO      -0.231200
     19 C14        146.5430   -22.0470    77.8510 c2         1 TBO      -0.102400
     20 C15        145.4360   -21.9170    78.8810 c3         1 TBO      -0.058900
     21 C16        147.8740   -22.4210    78.4860 c3         1 TBO      -0.058900
     22 HN1        143.2650   -26.5250    71.8280 hn         1 TBO       0.485000
     23 H41        147.9340   -25.2000    72.5340 h1         1 TBO       0.078700
     24 H42        147.3030   -24.1460    71.2710 h1         1 TBO       0.078700
     25 H5         147.1060   -22.3040    72.6820 h1         1 TBO       0.074700
     26 H71        148.1650   -24.9760    74.9970 h1         1 TBO       0.057200
     27 H72        147.3780   -24.2760    76.3940 h1         1 TBO       0.057200
     28 H9         143.7350   -27.3330    76.7820 ha         1 TBO       0.135000
     29 H10        142.7520   -27.4830    74.4690 ha         1 TBO       0.131000
     30 H111       149.3790   -21.9560    73.5690 hc         1 TBO       0.043367
     31 H112       149.6550   -23.7100    73.6430 hc         1 TBO       0.043367
     32 H113       149.4450   -22.9010    72.0780 hc         1 TBO       0.043367
     33 H121       148.3410   -21.9430    75.7430 h1         1 TBO       0.036200
     34 H122       147.1750   -21.0780    74.7500 h1         1 TBO       0.036200
     35 H13        145.3220   -21.6010    76.1890 ha         1 TBO       0.180000
     36 H151       145.6730   -21.1410    79.6190 hc         1 TBO       0.040200
     37 H152       144.4780   -21.6500    78.4190 hc         1 TBO       0.040200
     38 H153       145.2880   -22.8600    79.4210 hc         1 TBO       0.040200
     39 H161       147.7890   -23.3600    79.0460 hc         1 TBO       0.040200
     40 H162       148.6770   -22.5590    77.7550 hc         1 TBO       0.040200
     41 H163       148.2040   -21.6460    79.1880 hc         1 TBO       0.040200
@<TRIPOS>BOND
     1     1     2 1   
     2     1     3 1   
     3     1    22 1   
     4     2     6 ar  
     5     2    15 ar  
     6     3     4 2   
     7     3     5 1   
     8     5     6 1   
     9     5     7 1   
    10     6    11 ar  
    11     7     8 1   
    12     7    23 1   
    13     7    24 1   
    14     8     9 1   
    15     8    16 1   
    16     8    25 1   
    17     9    10 1   
    18     9    17 1   
    19    10    11 1   
    20    10    26 1   
    21    10    27 1   
    22    11    12 ar  
    23    12    13 1   
    24    12    14 ar  
    25    14    15 ar  
    26    14    28 1   
    27    15    29 1   
    28    16    30 1   
    29    16    31 1   
    30    16    32 1   
    31    17    18 1   
    32    17    33 1   
    33    17    34 1   
    34    18    19 2   
    35    18    35 1   
    36    19    20 1   
    37    19    21 1   
    38    20    36 1   
    39    20    37 1   
    40    20    38 1   
    41    21    39 1   
    42    21    40 1   
    43    21    41 1   
@<TRIPOS>SUBSTRUCTURE
     1 TBO         1 TEMP              0 ****  ****    0 ROOT
