@<TRIPOS>MOLECULE
TBO
   41    43     1     0     0
SMALL
abcg2


@<TRIPOS>ATOM
      1 N1         143.9800   -25.8890    72.3840 ns         1 TBO      -0.414600
      2 C1A        144.2930   -26.0850    73.7090 ca         1 TBO      -0.018400
      3 C2         144.9620   -25.2060    71.7490 cs         1 TBO       0.413400
      4 S2         144.9840   -24.7910    70.1330 s          1 TBO      -0.622400
      5 N3         145.9120   -24.9430    72.6870 n          1 TBO      -0.191000
      6 C3A        145.5220   -25.4680    73.9040 ca         1 TBO       0.005600
      7 C4         147.2480   -24.4500    72.4190 c3         1 TBO       0.099000
      8 C5         147.6180   -23.1960    73.2100 c3         1 TBO       0.202500
      9 N6         147.1450   -23.2870    74.5770 n3         1 TBO      -0.787600
     10 C7         147.3850   -24.5360    75.2740 c3         1 TBO       0.243100
     11 C7A        146.1570   -25.4030    75.1380 ca         1 TBO      -0.047300
     12 C8         145.4930   -26.0630    76.1640 ca         1 TBO       0.125000
     13 CL8        146.1760   -26.0660    77.7620 cl         1 TBO      -0.200000
     14 C9         144.2680   -26.7130    75.9850 ca         1 TBO      -0.097000
     15 C10        143.6390   -26.7220    74.7510 ca         1 TBO      -0.094000
     16 C11        149.1210   -22.9550    73.0620 c3         1 TBO      -0.130100
     17 C12        147.3120   -22.0890    75.3800 c3         1 TBO       0.244000
     18 C13        146.2820   -22.0510    76.4670 c2         1 TBO      -0.231200
     19 C14        146.4800   -22.1290    77.7850 c2         1 TBO      -0.102400
     20 C15        145.3190   -22.1330    78.7360 c3         1 TBO      -0.058900
     21 C16        147.8180   -22.2480    78.4510 c3         1 TBO      -0.058900
     22 HN1        143.1430   -26.2030    71.9180 hn         1 TBO       0.485000
     23 H41        147.9530   -25.2590    72.6270 h1         1 TBO       0.078700
     24 H42        147.3130   -24.2400    71.3530 h1         1 TBO       0.078700
     25 H5         147.0890   -22.3490    72.7580 h1         1 TBO       0.074700
     26 H71        148.2740   -25.0650    74.9120 h1         1 TBO       0.057200
     27 H72        147.5760   -24.3390    76.3270 h1         1 TBO       0.057200
     28 H9         143.7970   -27.2010    76.8270 ha         1 TBO       0.135000
     29 H10        142.6820   -27.2070    74.6170 ha         1 TBO       0.131000
     30 H111       149.4160   -22.0200    73.5390 hc         1 TBO       0.043367
     31 H112       149.7000   -23.7630    73.5140 hc         1 TBO       0.043367
     32 H113       149.4060   -22.8900    72.0100 hc         1 TBO       0.043367
     33 H121       148.3280   -21.9820    75.7810 h1         1 TBO       0.036200
     34 H122       147.1570   -21.2330    74.7160 h1         1 TBO       0.036200
     35 H13        145.2570   -21.9940    76.1090 ha         1 TBO       0.180000
     36 H151       145.4040   -21.3210    79.4630 hc         1 TBO       0.040200
     37 H152       144.3640   -22.0280    78.2210 hc         1 TBO       0.040200
     38 H153       145.2950   -23.0630    79.3090 hc         1 TBO       0.040200
     39 H161       147.8670   -23.1710    79.0340 hc         1 TBO       0.040200
     40 H162       148.6570   -22.2460    77.7590 hc         1 TBO       0.040200
     41 H163       147.9680   -21.4280    79.1580 hc         1 TBO       0.040200
@<TRIPOS>BOND
     1     1     2 1   
     2     1     3 1   
     3     1    22 1   
     4     2     6 ar  
     5     2    15 ar  
     6     3     4 2   
     7     3     5 1   
     8     5     6 1   
     9     5     7 1   
    10     6    11 ar  
    11     7     8 1   
    12     7    23 1   
    13     7    24 1   
    14     8     9 1   
    15     8    16 1   
    16     8    25 1   
    17     9    10 1   
    18     9    17 1   
    19    10    11 1   
    20    10    26 1   
    21    10    27 1   
    22    11    12 ar  
    23    12    13 1   
    24    12    14 ar  
    25    14    15 ar  
    26    14    28 1   
    27    15    29 1   
    28    16    30 1   
    29    16    31 1   
    30    16    32 1   
    31    17    18 1   
    32    17    33 1   
    33    17    34 1   
    34    18    19 2   
    35    18    35 1   
    36    19    20 1   
    37    19    21 1   
    38    20    36 1   
    39    20    37 1   
    40    20    38 1   
    41    21    39 1   
    42    21    40 1   
    43    21    41 1   
@<TRIPOS>SUBSTRUCTURE
     1 TBO         1 TEMP              0 ****  ****    0 ROOT
