@<TRIPOS>MOLECULE
TBP
   13    13     1     0     0
SMALL
No Charge or Current Charge


@<TRIPOS>ATOM
      1 O1           0.1870     0.2350     2.6340 oh         1 TBP      -0.502100
      2 C1           0.1380     0.1550     1.2710 ca         1 TBP       0.211100
      3 C2           1.3310     0.0820     0.5240 ca         1 TBP      -0.100400
      4 C3           1.2800    -0.0010    -0.8800 ca         1 TBP      -0.004000
      5 C4           0.0370    -0.0100    -1.5360 ca         1 TBP      -0.067900
      6 C5          -1.1550     0.0620    -0.7960 ca         1 TBP      -0.004000
      7 C6          -1.1060     0.1450     0.6070 ca         1 TBP      -0.100400
      8 Br2          3.0440     0.0930     1.3920 br         1 TBP      -0.070100
      9 Br4         -0.0310    -0.1230    -3.4440 br         1 TBP      -0.076100
     10 Br6         -2.7510     0.2430     1.5920 br         1 TBP      -0.070100
     11 H1          -0.7370     0.2770     2.9640 ho         1 TBP       0.489000
     12 H3           2.2000    -0.0570    -1.4570 ha         1 TBP       0.148000
     13 H5          -2.1150     0.0540    -1.3080 ha         1 TBP       0.148000
@<TRIPOS>BOND
     1     1     2 1   
     2     1    11 1   
     3     2     3 ar  
     4     2     7 ar  
     5     3     4 ar  
     6     3     8 1   
     7     4     5 ar  
     8     4    12 1   
     9     5     6 ar  
    10     5     9 1   
    11     6     7 ar  
    12     6    13 1   
    13     7    10 1   
@<TRIPOS>SUBSTRUCTURE
     1 TBP         1 TEMP              0 ****  ****    0 ROOT
