@<TRIPOS>MOLECULE
TBP
   13    13     1     0     0
SMALL
bcc


@<TRIPOS>ATOM
      1 O1           0.2310     0.2220     2.5930 oh         1 TBP      -0.463100
      2 C1           0.1100     0.1510     1.2700 ca         1 TBP       0.211100
      3 C2           1.2820     0.0800     0.5090 ca         1 TBP      -0.100400
      4 C3           1.2580     0.0000    -0.8720 ca         1 TBP      -0.022000
      5 C4           0.0350    -0.0090    -1.5230 ca         1 TBP      -0.067900
      6 C5          -1.1500     0.0600    -0.8110 ca         1 TBP      -0.022000
      7 C6          -1.1000     0.1390     0.5720 ca         1 TBP      -0.100400
      8 BR2          2.9350     0.0960     1.4010 br         1 TBP      -0.070100
      9 BR4         -0.0160    -0.1160    -3.4020 br         1 TBP      -0.076100
     10 BR6         -2.7190     0.2330     1.5320 br         1 TBP      -0.070100
     11 H1          -0.6220     0.3000     3.0410 ho         1 TBP       0.450000
     12 H3           2.1840    -0.0540    -1.4280 ha         1 TBP       0.166000
     13 H5          -2.1050     0.0530    -1.3190 ha         1 TBP       0.166000
@<TRIPOS>BOND
     1     1     2 1   
     2     1    11 1   
     3     2     3 ar  
     4     2     7 ar  
     5     3     4 ar  
     6     3     8 1   
     7     4     5 ar  
     8     4    12 1   
     9     5     6 ar  
    10     5     9 1   
    11     6     7 ar  
    12     6    13 1   
    13     7    10 1   
@<TRIPOS>SUBSTRUCTURE
     1 TBP         1 TEMP              0 ****  ****    0 ROOT
