@<TRIPOS>MOLECULE
TBS
   14    15     1     0     0
SMALL
No Charge or Current Charge


@<TRIPOS>ATOM
      1 C1          30.4030    24.1280    25.7760 ca         1 TBS       0.053100
      2 C2          30.8480    25.4500    25.4940 ca         1 TBS      -0.011900
      3 C3          30.9630    26.4020    26.5390 ca         1 TBS       0.086100
      4 C4          30.0750    23.7610    27.1030 ca         1 TBS      -0.001900
      5 N5          29.9740    24.7000    29.4350 na         1 TBS      -0.060400
      6 C6          30.2070    24.7410    28.0940 ca         1 TBS      -0.053200
      7 C7          30.6290    26.0060    27.8450 ca         1 TBS       0.030400
      8 N8          30.6570    26.7430    29.0260 nc         1 TBS      -0.195400
      9 N9          30.2510    25.9310    30.0040 nd         1 TBS      -0.137400
     10 Br10        29.4680    21.9970    27.5600 br         1 TBS      -0.041100
     11 Br11        30.2460    22.8330    24.3610 br         1 TBS      -0.025100
     12 Br12        31.2960    25.9530    23.6900 br         1 TBS      -0.029100
     13 Br13        31.5580    28.1990    26.2080 br         1 TBS      -0.012100
     14 H51         29.6460    23.9150    29.9900 hn         1 TBS       0.398000
@<TRIPOS>BOND
     1     1     2 ar  
     2     1     4 ar  
     3     1    11 1   
     4     2     3 ar  
     5     2    12 1   
     6     3     7 ar  
     7     3    13 1   
     8     4     6 ar  
     9     4    10 1   
    10     5     6 1   
    11     5     9 1   
    12     5    14 1   
    13     6     7 ar  
    14     7     8 1   
    15     8     9 2   
@<TRIPOS>SUBSTRUCTURE
     1 TBS         1 TEMP              0 ****  ****    0 ROOT
