@<TRIPOS>MOLECULE
TBS
   14    15     1     0     0
SMALL
abcg2


@<TRIPOS>ATOM
      1 C1          30.4010    24.1330    25.7930 ca         1 TBS       0.053100
      2 C2          30.8470    25.4600    25.5090 ca         1 TBS      -0.011900
      3 C3          30.9660    26.4010    26.5190 ca         1 TBS       0.086100
      4 C4          30.0730    23.7470    27.0830 ca         1 TBS      -0.001900
      5 N5          29.9770    24.7090    29.4230 na         1 TBS      -0.060400
      6 C6          30.1980    24.7080    28.0860 ca         1 TBS      -0.053200
      7 C7          30.6350    26.0120    27.8220 ca         1 TBS       0.030400
      8 N8          30.6510    26.7070    29.0060 nc         1 TBS      -0.195400
      9 N9          30.2560    25.9130    29.9470 nd         1 TBS      -0.137400
     10 BR10        29.4790    22.0160    27.5600 br         1 TBS      -0.041100
     11 BR11        30.2510    22.8680    24.3890 br         1 TBS      -0.025100
     12 BR12        31.2880    25.9470    23.7290 br         1 TBS      -0.029100
     13 BR13        31.5470    28.1770    26.2410 br         1 TBS      -0.012100
     14 H51         29.6510    23.9600    30.0190 hn         1 TBS       0.398000
@<TRIPOS>BOND
     1     1     2 ar  
     2     1     4 ar  
     3     1    11 1   
     4     2     3 ar  
     5     2    12 1   
     6     3     7 ar  
     7     3    13 1   
     8     4     6 ar  
     9     4    10 1   
    10     5     6 1   
    11     5     9 1   
    12     5    14 1   
    13     6     7 ar  
    14     7     8 1   
    15     8     9 2   
@<TRIPOS>SUBSTRUCTURE
     1 TBS         1 TEMP              0 ****  ****    0 ROOT
