@<TRIPOS>MOLECULE
TBT
   37    40     1     0     0
SMALL
bcc


@<TRIPOS>ATOM
      1 C4C          1.6270     0.0780     2.2330 c6         1 TBT      -0.068100
      2 C9C          1.0690     0.4300     3.6080 c6         1 TBT       0.160100
      3 O3           2.0040     0.1780     4.6320 oh         1 TBT      -0.584800
      4 C8B         -0.1880    -0.3740     3.8930 c6         1 TBT       0.161100
      5 O2           0.1210    -1.7400     3.7700 oh         1 TBT      -0.576800
      6 C3B         -1.2790     0.0200     2.8980 c6         1 TBT       0.160400
      7 O1          -1.6890     1.3330     3.2280 oh         1 TBT      -0.593800
      8 C3A         -0.7900    -0.0560     1.4700 ca         1 TBT      -0.114300
      9 C2A         -1.9340    -0.2260    -3.2410 ca         1 TBT      -0.114000
     10 C4A          0.5780     0.0550     1.1540 ca         1 TBT      -0.033300
     11 C1A         -2.3000    -0.2510    -1.9410 ca         1 TBT      -0.114000
     12 C5A          0.9630     0.0810    -0.1710 ca         1 TBT      -0.124000
     13 C4B          0.0430    -0.0100    -1.2260 ca         1 TBT      -0.005000
     14 C6A         -0.1930    -0.0670    -4.9760 ca         1 TBT      -0.117000
     15 C7A          1.1220     0.0620    -5.3500 ca         1 TBT      -0.123000
     16 C8A          2.1140     0.1700    -4.3660 ca         1 TBT      -0.126000
     17 C5B         -0.5600    -0.0920    -3.6180 ca         1 TBT      -0.034000
     18 C9B          0.4370     0.0170    -2.6220 ca         1 TBT      -0.020000
     19 C11         -1.3250    -0.1420    -0.9000 ca         1 TBT      -0.040000
     20 C9A          1.7760     0.1470    -3.0330 ca         1 TBT      -0.115000
     21 C10         -1.7080    -0.1610     0.4490 ca         1 TBT      -0.112000
     22 H4C1         2.1020    -0.9060     2.2810 hc         1 TBT       0.062200
     23 H4C2         2.4170     0.7850     1.9650 hc         1 TBT       0.062200
     24 H9C          0.7790     1.4880     3.6050 h1         1 TBT       0.053700
     25 H3           2.7580     0.7600     4.4970 ho         1 TBT       0.402000
     26 H8B         -0.5440    -0.1360     4.9060 h1         1 TBT       0.060700
     27 HO2         -0.6580    -2.2520     4.0080 ho         1 TBT       0.402000
     28 H3B         -2.1220    -0.6770     3.0160 h1         1 TBT       0.035700
     29 H1          -2.3830     1.6010     2.6160 ho         1 TBT       0.411000
     30 H2A         -2.6790    -0.3070    -4.0230 ha         1 TBT       0.132000
     31 H1A         -3.3440    -0.3520    -1.6670 ha         1 TBT       0.131000
     32 H5A          2.0220     0.1700    -0.3810 ha         1 TBT       0.131000
     33 H6A         -0.9680    -0.1490    -5.7290 ha         1 TBT       0.131000
     34 H7A          1.3920     0.0810    -6.3980 ha         1 TBT       0.133000
     35 H8A          3.1520     0.2720    -4.6540 ha         1 TBT       0.132000
     36 H9A          2.5670     0.2310    -2.3000 ha         1 TBT       0.131000
     37 H10         -2.7630    -0.2700     0.6840 ha         1 TBT       0.125000
@<TRIPOS>BOND
     1     1     2 1   
     2     1    10 1   
     3     1    22 1   
     4     1    23 1   
     5     2     3 1   
     6     2     4 1   
     7     2    24 1   
     8     3    25 1   
     9     4     5 1   
    10     4     6 1   
    11     4    26 1   
    12     5    27 1   
    13     6     7 1   
    14     6     8 1   
    15     6    28 1   
    16     7    29 1   
    17     8    10 ar  
    18     8    21 ar  
    19     9    11 ar  
    20     9    17 ar  
    21     9    30 1   
    22    10    12 ar  
    23    11    19 ar  
    24    11    31 1   
    25    12    13 ar  
    26    12    32 1   
    27    13    18 ar  
    28    13    19 ar  
    29    14    15 ar  
    30    14    17 ar  
    31    14    33 1   
    32    15    16 ar  
    33    15    34 1   
    34    16    20 ar  
    35    16    35 1   
    36    17    18 ar  
    37    18    20 ar  
    38    19    21 ar  
    39    20    36 1   
    40    21    37 1   
@<TRIPOS>SUBSTRUCTURE
     1 TBT         1 TEMP              0 ****  ****    0 ROOT
