@<TRIPOS>MOLECULE
TBT
   37    40     1     0     0
SMALL
No Charge or Current Charge


@<TRIPOS>ATOM
      1 C4C          1.6420     0.1490     2.2570 c6         1 TBT      -0.068100
      2 C9C          1.0810     0.4200     3.6780 c6         1 TBT       0.183300
      3 O3           2.1040     0.1880     4.6700 oh         1 TBT      -0.707000
      4 C8B         -0.1970    -0.4440     3.9420 c6         1 TBT       0.184300
      5 O2           0.0900    -1.8610     3.8460 oh         1 TBT      -0.639000
      6 C3B         -1.3070    -0.0280     2.9220 c6         1 TBT       0.183600
      7 O1          -1.8070     1.2840     3.2220 oh         1 TBT      -0.716000
      8 C3A         -0.8060    -0.0270     1.4700 ca         1 TBT      -0.114300
      9 C2A         -1.9190    -0.1860    -3.2750 ca         1 TBT      -0.096000
     10 C4A          0.5690     0.0820     1.1590 ca         1 TBT      -0.033300
     11 C1A         -2.2970    -0.1980    -1.9290 ca         1 TBT      -0.096000
     12 C5A          0.9830     0.0930    -0.1870 ca         1 TBT      -0.106000
     13 C4B          0.0500     0.0050    -1.2510 ca         1 TBT      -0.005000
     14 C6A         -0.2210    -0.0720    -4.9950 ca         1 TBT      -0.099000
     15 C7A          1.1200     0.0320    -5.3880 ca         1 TBT      -0.105000
     16 C8A          2.1230     0.1290    -4.4140 ca         1 TBT      -0.108000
     17 C5B         -0.5640    -0.0800    -3.6290 ca         1 TBT      -0.034000
     18 C9B          0.4380     0.0160    -2.6270 ca         1 TBT      -0.020000
     19 C11         -1.3240    -0.1030    -0.9200 ca         1 TBT      -0.040000
     20 C9A          1.7890     0.1220    -3.0490 ca         1 TBT      -0.097000
     21 C10         -1.7400    -0.1190     0.4230 ca         1 TBT      -0.094000
     22 H4C1         2.1910    -0.8020     2.2580 hc         1 TBT       0.062200
     23 H4C2         2.3780     0.9240     2.0050 hc         1 TBT       0.062200
     24 H9C          0.7760     1.4770     3.7170 h1         1 TBT       0.053700
     25 H3           2.8370     0.8160     4.4760 ho         1 TBT       0.501000
     26 H8B         -0.5620    -0.2110     4.9540 h1         1 TBT       0.060700
     27 HO2         -0.6870    -2.3340     4.2150 ho         1 TBT       0.441000
     28 H3B         -2.1300    -0.7540     3.0010 h1         1 TBT       0.035700
     29 H1          -2.3690     1.5470     2.4570 ho         1 TBT       0.510000
     30 H2A         -2.6840    -0.2610    -4.0450 ha         1 TBT       0.114000
     31 H1A         -3.3500    -0.2810    -1.6700 ha         1 TBT       0.113000
     32 H5A          2.0470     0.1680    -0.3730 ha         1 TBT       0.113000
     33 H6A         -0.9950    -0.1470    -5.7560 ha         1 TBT       0.113000
     34 H7A          1.3820     0.0390    -6.4440 ha         1 TBT       0.115000
     35 H8A          3.1650     0.2110    -4.7160 ha         1 TBT       0.114000
     36 H9A          2.6080     0.2010    -2.3440 ha         1 TBT       0.113000
     37 H10         -2.7990    -0.2050     0.6570 ha         1 TBT       0.107000
@<TRIPOS>BOND
     1     1     2 1   
     2     1    10 1   
     3     1    22 1   
     4     1    23 1   
     5     2     3 1   
     6     2     4 1   
     7     2    24 1   
     8     3    25 1   
     9     4     5 1   
    10     4     6 1   
    11     4    26 1   
    12     5    27 1   
    13     6     7 1   
    14     6     8 1   
    15     6    28 1   
    16     7    29 1   
    17     8    10 ar  
    18     8    21 ar  
    19     9    11 ar  
    20     9    17 ar  
    21     9    30 1   
    22    10    12 ar  
    23    11    19 ar  
    24    11    31 1   
    25    12    13 ar  
    26    12    32 1   
    27    13    18 ar  
    28    13    19 ar  
    29    14    15 ar  
    30    14    17 ar  
    31    14    33 1   
    32    15    16 ar  
    33    15    34 1   
    34    16    20 ar  
    35    16    35 1   
    36    17    18 ar  
    37    18    20 ar  
    38    19    21 ar  
    39    20    36 1   
    40    21    37 1   
@<TRIPOS>SUBSTRUCTURE
     1 TBT         1 TEMP              0 ****  ****    0 ROOT
