@<TRIPOS>MOLECULE
TBU
   15    14     1     0     0
SMALL
abcg2


@<TRIPOS>ATOM
      1 O            0.6170    -0.0020    -1.2950 oh         1 TBU      -0.661000
      2 C           -0.0060     0.0020    -0.0140 c3         1 TBU       0.181000
      3 C1           0.3990     1.2540     0.7620 c3         1 TBU      -0.106767
      4 C2          -1.5050     0.0090    -0.2800 c3         1 TBU      -0.106767
      5 C3           0.3880    -1.2520     0.7640 c3         1 TBU      -0.106767
      6 HO           1.5710    -0.0080    -1.1610 ho         1 TBU       0.438000
      7 H11          0.1130     2.1590     0.2240 hc         1 TBU       0.040367
      8 H12         -0.0790     1.2810     1.7420 hc         1 TBU       0.040367
      9 H13          1.4800     1.2850     0.9250 hc         1 TBU       0.040367
     10 H21         -1.8120    -0.8790    -0.8350 hc         1 TBU       0.040367
     11 H22         -2.0620     0.0230     0.6570 hc         1 TBU       0.040367
     12 H23         -1.8000     0.8890    -0.8550 hc         1 TBU       0.040367
     13 H31          1.4680    -1.2910     0.9290 hc         1 TBU       0.040367
     14 H32         -0.0920    -1.2740     1.7430 hc         1 TBU       0.040367
     15 H33          0.0960    -2.1550     0.2260 hc         1 TBU       0.040367
@<TRIPOS>BOND
     1     1     2 1   
     2     1     6 1   
     3     2     3 1   
     4     2     4 1   
     5     2     5 1   
     6     3     7 1   
     7     3     8 1   
     8     3     9 1   
     9     4    10 1   
    10     4    11 1   
    11     4    12 1   
    12     5    13 1   
    13     5    14 1   
    14     5    15 1   
@<TRIPOS>SUBSTRUCTURE
     1 TBU         1 TEMP              0 ****  ****    0 ROOT
