@<TRIPOS>MOLECULE
TBU
   15    14     1     0     0
SMALL
No Charge or Current Charge


@<TRIPOS>ATOM
      1 O            0.6400    -0.0030    -1.2750 oh         1 TBU      -0.661000
      2 C           -0.0220     0.0020    -0.0100 c3         1 TBU       0.181000
      3 C1           0.4120     1.2740     0.7510 c3         1 TBU      -0.106767
      4 C2          -1.5440     0.0090    -0.2730 c3         1 TBU      -0.106767
      5 C3           0.4000    -1.2720     0.7550 c3         1 TBU      -0.106767
      6 HO           1.6040    -0.0080    -1.0920 ho         1 TBU       0.438000
      7 H11          0.1450     2.1780     0.1890 hc         1 TBU       0.040367
      8 H12         -0.0810     1.3270     1.7290 hc         1 TBU       0.040367
      9 H13          1.4960     1.2850     0.9180 hc         1 TBU       0.040367
     10 H21         -1.8480    -0.8780    -0.8420 hc         1 TBU       0.040367
     11 H22         -2.1010     0.0130     0.6720 hc         1 TBU       0.040367
     12 H23         -1.8390     0.8970    -0.8450 hc         1 TBU       0.040367
     13 H31          1.4840    -1.2920     0.9230 hc         1 TBU       0.040367
     14 H32         -0.0940    -1.3160     1.7340 hc         1 TBU       0.040367
     15 H33          0.1240    -2.1750     0.1960 hc         1 TBU       0.040367
@<TRIPOS>BOND
     1     1     2 1   
     2     1     6 1   
     3     2     3 1   
     4     2     4 1   
     5     2     5 1   
     6     3     7 1   
     7     3     8 1   
     8     3     9 1   
     9     4    10 1   
    10     4    11 1   
    11     4    12 1   
    12     5    13 1   
    13     5    14 1   
    14     5    15 1   
@<TRIPOS>SUBSTRUCTURE
     1 TBU         1 TEMP              0 ****  ****    0 ROOT
