@<TRIPOS>MOLECULE
TBV
   91    94     1     0     0
SMALL
No Charge or Current Charge


@<TRIPOS>ATOM
      1 CHA         -0.2270    -0.7700    -2.2550 c3         1 TBV       0.059200
      2 CHB         -3.7730     1.5530     0.4930 ce         1 TBV      -0.107200
      3 CHD          2.3980    -2.0650     1.8900 c3         1 TBV       0.068200
      4 NA          -2.1060     0.1870    -0.8440 na         1 TBV      -0.075000
      5 C1A         -0.9950     0.3780    -1.6520 cc         1 TBV      -0.158300
      6 C2A         -0.7920     1.7330    -1.7130 cd         1 TBV      -0.141300
      7 C3A         -1.8060     2.3660    -0.9400 cd         1 TBV      -0.136300
      8 C4A         -2.6160     1.3990    -0.3900 cc         1 TBV      -0.169800
      9 CAA          0.3250     2.4350    -2.4560 c3         1 TBV       0.011900
     10 CBA         -0.0540     2.7680    -3.9170 c3         1 TBV      -0.200400
     11 CGA          1.1150     3.4840    -4.6100 c          1 TBV       0.712000
     12 O1A          1.1720     4.7020    -4.5370 o          1 TBV      -0.755000
     13 O2A          1.9590     2.8030    -5.1720 o          1 TBV      -0.755000
     14 CMA         -1.9520     3.8580    -0.7450 c3         1 TBV      -0.008800
     15 NB          -4.7210    -0.6900     1.0000 ns         1 TBV      -0.413100
     16 C1B         -4.6600     0.6770     1.0850 cd         1 TBV      -0.004400
     17 C2B         -5.7430     1.0670     1.9560 cd         1 TBV      -0.044200
     18 C3B         -6.3920    -0.0990     2.3380 cc         1 TBV      -0.193200
     19 C4B         -5.7180    -1.2560     1.7160 c          1 TBV       0.553200
     20 CMB         -6.0990     2.4770     2.3670 c3         1 TBV      -0.040900
     21 CAB         -7.5380    -0.2380     3.2350 ce         1 TBV      -0.137000
     22 CBB         -8.6190    -1.0060     2.9880 c2         1 TBV      -0.329000
     23 NC           4.7680    -1.1640     1.5010 na         1 TBV      -0.128000
     24 C1C          5.3880     0.0650     1.3640 cc         1 TBV      -0.011900
     25 C2C          4.4600     1.0590     1.4820 cd         1 TBV      -0.121300
     26 C3C          3.2080     0.4130     1.6960 cd         1 TBV      -0.100800
     27 C4C          3.4070    -0.9540     1.7190 cc         1 TBV      -0.154300
     28 CBC          1.4420     2.0270     1.0460 c2         1 TBV      -0.269000
     29 ND           1.1310    -1.2200    -0.1540 na         1 TBV      -0.086000
     30 C1D          1.5200    -2.2610     0.6780 cc         1 TBV      -0.195300
     31 C2D          0.9530    -3.3970     0.1590 cd         1 TBV      -0.149300
     32 C3D          0.2060    -3.0390    -1.0010 cd         1 TBV      -0.141300
     33 C4D          0.3430    -1.6840    -1.2000 cc         1 TBV      -0.137300
     34 OC           6.7110     0.3670     1.1310 os         1 TBV      -0.341100
     35 CBD         -1.9960    -4.3300    -1.3200 c3         1 TBV      -0.197400
     36 C46          7.9330    -1.5300     2.0870 c3         1 TBV      -0.100767
     37 CGD         -2.9310    -3.1170    -1.4250 c          1 TBV       0.719000
     38 O2D         -3.0400    -2.3770    -0.4570 o          1 TBV      -0.725000
     39 O1D         -3.5140    -2.9320    -2.4810 o          1 TBV      -0.725000
     40 C47          7.3740    -1.3950    -0.4380 c3         1 TBV      -0.100767
     41 C44          7.7420    -0.6130     0.8500 c3         1 TBV       0.181000
     42 OB          -5.9620    -2.4500     1.8020 o          1 TBV      -0.560000
     43 C45          9.0200     0.2250     0.6120 c3         1 TBV      -0.100767
     44 HHA1        -0.8920    -1.3260    -2.9250 hc         1 TBV       0.065200
     45 HHA2         0.5860    -0.3980    -2.8890 hc         1 TBV       0.065200
     46 HHB         -3.9670     2.5940     0.7460 ha         1 TBV       0.166000
     47 HHD1         2.9230    -3.0010     2.1190 hc         1 TBV       0.051200
     48 HHD2         1.7680    -1.8560     2.7630 hc         1 TBV       0.051200
     49 HAA1         0.6030     3.3590    -1.9360 hc         1 TBV       0.031700
     50 HAA2         1.2280     1.8140    -2.4510 hc         1 TBV       0.031700
     51 HMA1        -3.0070     4.1560    -0.7280 hc         1 TBV       0.025367
     52 HMA2        -1.4980     4.1740     0.2020 hc         1 TBV       0.025367
     53 HMA3        -1.4760     4.4260    -1.5520 hc         1 TBV       0.025367
     54 HBA1        -0.2580     1.8040    -4.4000 hc         1 TBV       0.022200
     55 HBA2        -0.9300     3.4260    -3.8580 hc         1 TBV       0.022200
     56 HB          -4.0990    -1.2960     0.4640 hn         1 TBV       0.418500
     57 HMB1        -6.2600     3.1120     1.4880 hc         1 TBV       0.037367
     58 HMB2        -7.0160     2.5070     2.9650 hc         1 TBV       0.037367
     59 HMB3        -5.2960     2.9230     2.9650 hc         1 TBV       0.037367
     60 HC           5.2260    -2.0650     1.4460 hn         1 TBV       0.340000
     61 HMC1         4.6060     2.9060     0.3720 hc         1 TBV       0.035367
     62 HMC2         3.9910     3.1010     2.0240 hc         1 TBV       0.035367
     63 HMC3         5.7100     2.8060     1.7530 hc         1 TBV       0.035367
     64 HAC          1.2430     0.6290     2.6240 ha         1 TBV       0.163000
     65 HBC1         2.0500     2.4310     0.2370 ha         1 TBV       0.189500
     66 HBC2         0.4380     2.4370     1.1670 ha         1 TBV       0.189500
     67 HD           1.3860    -0.2480    -0.0050 hn         1 TBV       0.362000
     68 HMD1         0.2680    -5.4430     0.4380 hc         1 TBV       0.020700
     69 HMD2         2.0270    -5.2570     0.3740 hc         1 TBV       0.020700
     70 HMD3         1.1300    -4.7700     1.8220 hc         1 TBV       0.020700
     71 HAD1        -0.6690    -3.6230    -2.8890 hc         1 TBV       0.037700
     72 HAD2        -0.0220    -4.9420    -1.9550 hc         1 TBV       0.037700
     73 HBD1        -2.3660    -5.1340    -1.9670 hc         1 TBV       0.034200
     74 HBD2        -1.8740    -4.6300    -0.2730 hc         1 TBV       0.034200
     75 H471         7.0980    -0.7070    -1.2450 hc         1 TBV       0.040144
     76 H472         8.2290    -1.9910    -0.7800 hc         1 TBV       0.040144
     77 H473         6.5410    -2.0870    -0.2750 hc         1 TBV       0.040144
     78 H461         7.1050    -2.2340     2.2110 hc         1 TBV       0.040144
     79 H462         8.8500    -2.1230     1.9830 hc         1 TBV       0.040144
     80 H463         8.0200    -0.9330     3.0040 hc         1 TBV       0.040144
     81 H451         9.2690     0.8180     1.5010 hc         1 TBV       0.040144
     82 H452         9.8750    -0.4240     0.3870 hc         1 TBV       0.040144
     83 H453         8.8840     0.9130    -0.2310 hc         1 TBV       0.040144
     84 HAB         -7.5200     0.4070     4.1160 ha         1 TBV       0.140000
     85 HBB1        -9.4660    -1.0360     3.6750 ha         1 TBV       0.163500
     86 HBB2        -8.6910    -1.6260     2.0940 ha         1 TBV       0.163500
     87 HA1         -2.4800    -0.7360    -0.6160 hn         1 TBV       0.419000
     88 CMD          1.0990    -4.7910     0.7260 c3         1 TBV      -0.000800
     89 CMC          4.7040     2.5470     1.4030 c3         1 TBV      -0.009800
     90 CAD         -0.5820    -4.0030    -1.8640 c3         1 TBV       0.008900
     91 CAC          1.9000     1.0500     1.8600 cf         1 TBV      -0.205200
@<TRIPOS>BOND
     1     1     5 1   
     2     1    33 1   
     3     1    44 1   
     4     1    45 1   
     5     2     8 1   
     6     2    16 2   
     7     2    46 1   
     8     3    27 1   
     9     3    30 1   
    10     3    47 1   
    11     3    48 1   
    12     4     5 1   
    13     4     8 1   
    14     4    87 1   
    15     5     6 2   
    16     6     7 1   
    17     6     9 1   
    18     7     8 2   
    19     7    14 1   
    20     9    10 1   
    21     9    49 1   
    22     9    50 1   
    23    10    11 1   
    24    10    54 1   
    25    10    55 1   
    26    11    12 1   
    27    11    13 1   
    28    14    51 1   
    29    14    52 1   
    30    14    53 1   
    31    15    16 1   
    32    15    19 1   
    33    15    56 1   
    34    16    17 1   
    35    17    18 2   
    36    17    20 1   
    37    18    19 1   
    38    18    21 1   
    39    19    42 2   
    40    20    57 1   
    41    20    58 1   
    42    20    59 1   
    43    21    22 2   
    44    21    84 1   
    45    22    85 1   
    46    22    86 1   
    47    23    24 1   
    48    23    27 1   
    49    23    60 1   
    50    24    25 2   
    51    24    34 1   
    52    25    26 1   
    53    25    89 1   
    54    26    27 2   
    55    26    91 1   
    56    28    65 1   
    57    28    66 1   
    58    28    91 2   
    59    29    30 1   
    60    29    33 1   
    61    29    67 1   
    62    30    31 2   
    63    31    32 1   
    64    31    88 1   
    65    32    33 2   
    66    32    90 1   
    67    34    41 1   
    68    35    37 1   
    69    35    73 1   
    70    35    74 1   
    71    35    90 1   
    72    36    41 1   
    73    36    78 1   
    74    36    79 1   
    75    36    80 1   
    76    37    38 1   
    77    37    39 1   
    78    40    41 1   
    79    40    75 1   
    80    40    76 1   
    81    40    77 1   
    82    41    43 1   
    83    43    81 1   
    84    43    82 1   
    85    43    83 1   
    86    61    89 1   
    87    62    89 1   
    88    63    89 1   
    89    64    91 1   
    90    68    88 1   
    91    69    88 1   
    92    70    88 1   
    93    71    90 1   
    94    72    90 1   
@<TRIPOS>SUBSTRUCTURE
     1 TBV         1 TEMP              0 ****  ****    0 ROOT
