@<TRIPOS>MOLECULE
TBV
   91    94     1     0     0
SMALL
abcg2


@<TRIPOS>ATOM
      1 CHA         -0.3660    -0.0690    -1.2860 c3         1 TBV       0.059200
      2 CHB         -4.8800     1.0180     0.5290 ce         1 TBV      -0.107200
      3 CHD          3.2800    -1.1680     1.9280 c3         1 TBV       0.068200
      4 NA          -2.7040     0.1930    -0.4440 na         1 TBV      -0.075000
      5 C1A         -1.4550     0.6930    -0.5930 cc         1 TBV      -0.158300
      6 C2A         -1.4050     1.9540    -0.0160 cd         1 TBV      -0.141300
      7 C3A         -2.6880     2.2120     0.5060 cd         1 TBV      -0.136300
      8 C4A         -3.4900     1.1000     0.2250 cc         1 TBV      -0.169800
      9 CAA         -0.2470     2.9020    -0.0120 c3         1 TBV       0.011900
     10 CBA         -0.3120     3.9230    -1.1460 c3         1 TBV      -0.200400
     11 CGA          0.7930     4.9930    -1.1140 c          1 TBV       0.712000
     12 O1A          1.1810     5.3770     0.0090 o          1 TBV      -0.755000
     13 O2A          1.1900     5.4250    -2.2170 o          1 TBV      -0.755000
     14 CMA         -3.1170     3.4720     1.1830 c3         1 TBV      -0.008800
     15 NB          -5.8420    -1.0160    -0.5260 ns         1 TBV      -0.413100
     16 C1B         -5.8790     0.1540     0.2170 cd         1 TBV      -0.004400
     17 C2B         -7.2660     0.3620     0.5930 cd         1 TBV      -0.044200
     18 C3B         -8.0070    -0.6610     0.0830 cc         1 TBV      -0.193200
     19 C4B         -7.0830    -1.5690    -0.6300 c          1 TBV       0.553200
     20 CMB         -7.7480     1.5410     1.3650 c3         1 TBV      -0.040900
     21 CAB         -9.4390    -0.8400     0.2040 ce         1 TBV      -0.137000
     22 CBB        -10.1790    -1.8340    -0.2970 c2         1 TBV      -0.329000
     23 NC           5.3630    -1.4790     0.5890 na         1 TBV      -0.128000
     24 C1C          6.2390    -0.7570    -0.1770 cc         1 TBV      -0.011900
     25 C2C          5.8760     0.5630    -0.1380 cd         1 TBV      -0.121300
     26 C3C          4.7140     0.6330     0.7010 cd         1 TBV      -0.100800
     27 C4C          4.4380    -0.6490     1.1380 cc         1 TBV      -0.154300
     28 CBC          3.7770     2.9260     0.3420 c2         1 TBV      -0.269000
     29 ND           1.5200    -0.4560     0.3150 na         1 TBV      -0.086000
     30 C1D          2.0760    -1.4410     1.0810 cc         1 TBV      -0.195300
     31 C2D          1.3440    -2.5880     0.8770 cd         1 TBV      -0.149300
     32 C3D          0.3130    -2.2660    -0.0570 cd         1 TBV      -0.141300
     33 C4D          0.4530    -0.9380    -0.3830 cc         1 TBV      -0.137300
     34 OC           7.2370    -1.3390    -0.8580 os         1 TBV      -0.341100
     35 CBD         -1.9750    -3.2460     0.4180 c3         1 TBV      -0.197400
     36 C46          8.8400    -0.7530     0.9130 c3         1 TBV      -0.100767
     37 CGD         -3.3120    -3.3360    -0.3130 c          1 TBV       0.719000
     38 O2D         -3.5620    -2.3550    -1.0900 o          1 TBV      -0.725000
     39 O1D         -4.0590    -4.2980    -0.1280 o          1 TBV      -0.725000
     40 C47          8.2110    -3.1400     0.4580 c3         1 TBV      -0.100767
     41 C44          8.4400    -1.7620    -0.1530 c3         1 TBV       0.181000
     42 OB          -7.3420    -2.6130    -1.2160 o          1 TBV      -0.560000
     43 C45          9.4980    -1.8360    -1.2440 c3         1 TBV      -0.100767
     44 HHA1        -0.8030    -0.6890    -2.0720 hc         1 TBV       0.065200
     45 HHA2         0.2850     0.6430    -1.7980 hc         1 TBV       0.065200
     46 HHB         -5.2160     1.8670     1.1110 ha         1 TBV       0.166000
     47 HHD1         3.5660    -2.0850     2.4470 hc         1 TBV       0.051200
     48 HHD2         3.0340    -0.4510     2.7170 hc         1 TBV       0.051200
     49 HAA1        -0.2020     3.4350     0.9400 hc         1 TBV       0.031700
     50 HAA2         0.6980     2.3570    -0.0800 hc         1 TBV       0.031700
     51 HMA1        -3.6080     4.1630     0.4940 hc         1 TBV       0.025367
     52 HMA2        -3.8150     3.2890     2.0020 hc         1 TBV       0.025367
     53 HMA3        -2.2610     3.9970     1.6050 hc         1 TBV       0.025367
     54 HBA1        -0.3070     3.4050    -2.1090 hc         1 TBV       0.022200
     55 HBA2        -1.2770     4.4430    -1.0960 hc         1 TBV       0.022200
     56 HB          -4.9940    -1.5390    -0.8100 hn         1 TBV       0.418500
     57 HMB1        -7.7090     2.4490     0.7600 hc         1 TBV       0.037367
     58 HMB2        -8.7770     1.4140     1.6950 hc         1 TBV       0.037367
     59 HMB3        -7.1430     1.7200     2.2540 hc         1 TBV       0.037367
     60 HC           5.3680    -2.4820     0.6890 hn         1 TBV       0.340000
     61 HMC1         6.0450     2.0610    -1.6830 hc         1 TBV       0.035367
     62 HMC2         6.7360     2.5310    -0.1410 hc         1 TBV       0.035367
     63 HMC3         7.5740     1.3710    -1.1640 hc         1 TBV       0.035367
     64 HAC          3.2690     1.6790     1.9150 ha         1 TBV       0.163000
     65 HBC1         4.3290     3.1150    -0.5700 ha         1 TBV       0.189500
     66 HBC2         3.0950     3.7030     0.6600 ha         1 TBV       0.189500
     67 HD           1.8920     0.4760     0.2250 hn         1 TBV       0.362000
     68 HMD1         0.7180    -4.2270     2.1260 hc         1 TBV       0.020700
     69 HMD2         1.6780    -4.7080     0.7420 hc         1 TBV       0.020700
     70 HMD3         2.4520    -3.9510     2.1250 hc         1 TBV       0.020700
     71 HAD1        -1.1200    -2.7980    -1.5170 hc         1 TBV       0.037700
     72 HAD2        -0.3870    -4.1680    -0.7290 hc         1 TBV       0.037700
     73 HBD1        -1.8520    -4.0830     1.1090 hc         1 TBV       0.034200
     74 HBD2        -1.9980    -2.3370     1.0270 hc         1 TBV       0.034200
     75 H471         7.8550    -3.8450    -0.2950 hc         1 TBV       0.040144
     76 H472         9.1450    -3.5310     0.8630 hc         1 TBV       0.040144
     77 H473         7.4940    -3.1150     1.2790 hc         1 TBV       0.040144
     78 H461         8.0990    -0.6720     1.7090 hc         1 TBV       0.040144
     79 H462         9.7800    -1.0660     1.3700 hc         1 TBV       0.040144
     80 H463         8.9950     0.2400     0.4880 hc         1 TBV       0.040144
     81 H451         9.6670    -0.8560    -1.6930 hc         1 TBV       0.040144
     82 H452        10.4440    -2.1850    -0.8310 hc         1 TBV       0.040144
     83 H453         9.2030    -2.5300    -2.0330 hc         1 TBV       0.040144
     84 HAB         -9.9550    -0.0710     0.7690 ha         1 TBV       0.140000
     85 HBB1       -11.2480    -1.8490    -0.1300 ha         1 TBV       0.163500
     86 HBB2        -9.7590    -2.6450    -0.8720 ha         1 TBV       0.163500
     87 HA1         -2.9730    -0.7680    -0.7170 hn         1 TBV       0.419000
     88 CMD          1.5600    -3.9290     1.4980 c3         1 TBV      -0.000800
     89 CMC          6.5910     1.6850    -0.8150 c3         1 TBV      -0.009800
     90 CAD         -0.7750    -3.1620    -0.5460 c3         1 TBV       0.008900
     91 CAC          3.8880     1.7840     1.0260 cf         1 TBV      -0.205200
@<TRIPOS>BOND
     1     1     5 1   
     2     1    33 1   
     3     1    44 1   
     4     1    45 1   
     5     2     8 1   
     6     2    16 2   
     7     2    46 1   
     8     3    27 1   
     9     3    30 1   
    10     3    47 1   
    11     3    48 1   
    12     4     5 1   
    13     4     8 1   
    14     4    87 1   
    15     5     6 2   
    16     6     7 1   
    17     6     9 1   
    18     7     8 2   
    19     7    14 1   
    20     9    10 1   
    21     9    49 1   
    22     9    50 1   
    23    10    11 1   
    24    10    54 1   
    25    10    55 1   
    26    11    12 1   
    27    11    13 1   
    28    14    51 1   
    29    14    52 1   
    30    14    53 1   
    31    15    16 1   
    32    15    19 1   
    33    15    56 1   
    34    16    17 1   
    35    17    18 2   
    36    17    20 1   
    37    18    19 1   
    38    18    21 1   
    39    19    42 2   
    40    20    57 1   
    41    20    58 1   
    42    20    59 1   
    43    21    22 2   
    44    21    84 1   
    45    22    85 1   
    46    22    86 1   
    47    23    24 1   
    48    23    27 1   
    49    23    60 1   
    50    24    25 2   
    51    24    34 1   
    52    25    26 1   
    53    25    89 1   
    54    26    27 2   
    55    26    91 1   
    56    28    65 1   
    57    28    66 1   
    58    28    91 2   
    59    29    30 1   
    60    29    33 1   
    61    29    67 1   
    62    30    31 2   
    63    31    32 1   
    64    31    88 1   
    65    32    33 2   
    66    32    90 1   
    67    34    41 1   
    68    35    37 1   
    69    35    73 1   
    70    35    74 1   
    71    35    90 1   
    72    36    41 1   
    73    36    78 1   
    74    36    79 1   
    75    36    80 1   
    76    37    38 1   
    77    37    39 1   
    78    40    41 1   
    79    40    75 1   
    80    40    76 1   
    81    40    77 1   
    82    41    43 1   
    83    43    81 1   
    84    43    82 1   
    85    43    83 1   
    86    61    89 1   
    87    62    89 1   
    88    63    89 1   
    89    64    91 1   
    90    68    88 1   
    91    69    88 1   
    92    70    88 1   
    93    71    90 1   
    94    72    90 1   
@<TRIPOS>SUBSTRUCTURE
     1 TBV         1 TEMP              0 ****  ****    0 ROOT
