@<TRIPOS>MOLECULE
TBW
   32    33     1     0     0
SMALL
No Charge or Current Charge


@<TRIPOS>ATOM
      1 C10         30.0680     8.6200    13.4330 c          1 TBW       0.608100
      2 C13         29.1700    10.8550    14.2280 c3         1 TBW      -0.026100
      3 C15         27.6720    10.1590    16.1620 ca         1 TBW      -0.114000
      4 C17         25.5270     9.0720    15.7820 ca         1 TBW      -0.105000
      5 N01         29.2350     1.4230    13.7110 n8         1 TBW      -1.015100
      6 O03         27.4220     1.8650    12.1330 o          1 TBW      -0.517500
      7 O04         27.1030     2.1370    14.6580 o          1 TBW      -0.517500
      8 C05         28.5030     4.0470    13.3360 cc         1 TBW       0.127300
      9 N06         28.8370     4.6370    12.1950 nd         1 TBW      -0.188000
     10 N07         29.2780     5.9340    12.3910 nd         1 TBW      -0.346000
     11 C08         29.2690     6.2830    13.6680 cc         1 TBW       0.561300
     12 N09         29.6540     7.5160    14.1400 ns         1 TBW      -0.480400
     13 O11         30.2180     8.6390    12.2210 o          1 TBW      -0.508100
     14 C12         30.3450     9.8540    14.2970 c3         1 TBW      -0.157400
     15 C14         27.8810    10.2500    14.7720 ca         1 TBW      -0.106300
     16 C16         26.4980     9.5730    16.6660 ca         1 TBW      -0.109500
     17 C18         25.7300     9.1600    14.3950 ca         1 TBW      -0.109500
     18 C19         26.9030     9.7470    13.8910 ca         1 TBW      -0.114000
     19 S20         28.7120     5.0490    14.7530 ss         1 TBW      -0.203800
     20 H1          29.4320    11.7530    14.8020 hc         1 TBW       0.064700
     21 H2          29.0340    11.1890    13.1910 hc         1 TBW       0.064700
     22 H3          28.4220    10.5400    16.8530 ha         1 TBW       0.117000
     23 H4          24.6190     8.6170    16.1720 ha         1 TBW       0.123000
     24 H5          29.1550     0.7410    12.9580 hn         1 TBW       0.490500
     25 H6          28.9330     0.8810    14.5180 hn         1 TBW       0.490500
     26 H7          29.5780     7.6580    15.1360 hn         1 TBW       0.332500
     27 H8          30.4880     9.5640    15.3440 hc         1 TBW       0.072200
     28 H9          31.2460    10.3530    13.9210 hc         1 TBW       0.072200
     29 H10         26.3420     9.5050    17.7400 ha         1 TBW       0.120500
     30 H11         24.9790     8.7710    13.7100 ha         1 TBW       0.120500
     31 H12         27.0540     9.8050    12.8150 ha         1 TBW       0.117000
     32 S02         27.8900     2.3310    13.4390 sy         1 TBW       1.137200
@<TRIPOS>BOND
     1     1    12 1   
     2     1    13 2   
     3     1    14 1   
     4     2    14 1   
     5     2    15 1   
     6     2    20 1   
     7     2    21 1   
     8     3    15 ar  
     9     3    16 ar  
    10     3    22 1   
    11     4    16 ar  
    12     4    17 ar  
    13     4    23 1   
    14     5    24 1   
    15     5    25 1   
    16     5    32 1   
    17     6    32 2   
    18     7    32 2   
    19     8     9 2   
    20     8    19 1   
    21     8    32 1   
    22     9    10 1   
    23    10    11 2   
    24    11    12 1   
    25    11    19 1   
    26    12    26 1   
    27    14    27 1   
    28    14    28 1   
    29    15    18 ar  
    30    16    29 1   
    31    17    18 ar  
    32    17    30 1   
    33    18    31 1   
@<TRIPOS>SUBSTRUCTURE
     1 TBW         1 TEMP              0 ****  ****    0 ROOT
