@<TRIPOS>MOLECULE
TBW
   32    33     1     0     0
SMALL
abcg2


@<TRIPOS>ATOM
      1 C10         30.3020     8.8000    13.5080 c          1 TBW       0.608100
      2 C13         28.9600    10.7920    14.2540 c3         1 TBW      -0.026100
      3 C15         27.6600     9.6960    16.1200 ca         1 TBW      -0.114000
      4 C17         25.8260     8.1950    15.6740 ca         1 TBW      -0.105000
      5 N01         28.3340     1.7870    13.9880 n8         1 TBW      -1.015100
      6 O03         27.4070     2.5290    11.8210 o          1 TBW      -0.517500
      7 O04         26.3090     3.2000    13.9710 o          1 TBW      -0.517500
      8 C05         28.4420     4.4310    13.2540 cc         1 TBW       0.127300
      9 N06         29.3690     4.7190    12.3990 nd         1 TBW      -0.188000
     10 N07         29.9960     5.8950    12.6740 nd         1 TBW      -0.346000
     11 C08         29.5090     6.4760    13.7400 cc         1 TBW       0.561300
     12 N09         29.9170     7.6860    14.2490 ns         1 TBW      -0.480400
     13 O11         30.5270     8.7560    12.3160 o          1 TBW      -0.508100
     14 C12         30.3320    10.0730    14.3200 c3         1 TBW      -0.157400
     15 C14         27.8260     9.9330    14.7540 ca         1 TBW      -0.106300
     16 C16         26.6720     8.8320    16.5780 ca         1 TBW      -0.109500
     17 C18         25.9760     8.4320    14.3120 ca         1 TBW      -0.109500
     18 C19         26.9690     9.2930    13.8580 ca         1 TBW      -0.114000
     19 S20         28.2090     5.6000    14.4990 ss         1 TBW      -0.203800
     20 H1          29.0400    11.7010    14.8530 hc         1 TBW       0.064700
     21 H2          28.7700    11.0920    13.2230 hc         1 TBW       0.064700
     22 H3          28.3200    10.1840    16.8300 ha         1 TBW       0.117000
     23 H4          25.0610     7.5170    16.0290 ha         1 TBW       0.123000
     24 H5          28.4500     1.9710    14.9790 hn         1 TBW       0.490500
     25 H6          29.1970     1.5140    13.5270 hn         1 TBW       0.490500
     26 H7          29.6590     7.8650    15.2090 hn         1 TBW       0.332500
     27 H8          30.5850     9.8600    15.3600 hc         1 TBW       0.072200
     28 H9          31.1010    10.7200    13.9010 hc         1 TBW       0.072200
     29 H10         26.5620     8.6550    17.6410 ha         1 TBW       0.120500
     30 H11         25.3260     7.9370    13.6010 ha         1 TBW       0.120500
     31 H12         27.0910     9.4610    12.7940 ha         1 TBW       0.117000
     32 S02         27.4910     2.9270    13.1970 sy         1 TBW       1.137200
@<TRIPOS>BOND
     1     1    12 1   
     2     1    13 2   
     3     1    14 1   
     4     2    14 1   
     5     2    15 1   
     6     2    20 1   
     7     2    21 1   
     8     3    15 ar  
     9     3    16 ar  
    10     3    22 1   
    11     4    16 ar  
    12     4    17 ar  
    13     4    23 1   
    14     5    24 1   
    15     5    25 1   
    16     5    32 1   
    17     6    32 2   
    18     7    32 2   
    19     8     9 2   
    20     8    19 1   
    21     8    32 1   
    22     9    10 1   
    23    10    11 2   
    24    11    12 1   
    25    11    19 1   
    26    12    26 1   
    27    14    27 1   
    28    14    28 1   
    29    15    18 ar  
    30    16    29 1   
    31    17    18 ar  
    32    17    30 1   
    33    18    31 1   
@<TRIPOS>SUBSTRUCTURE
     1 TBW         1 TEMP              0 ****  ****    0 ROOT
