@<TRIPOS>MOLECULE
TBZ
   70    77     1     0     0
SMALL
No Charge or Current Charge


@<TRIPOS>ATOM
      1 N1         -12.1500    -1.3350     1.7680 nz         1 TBZ      -0.973000
      2 C1         -12.4780    -0.4730     0.5700 c5         1 TBZ       0.099300
      3 C2         -11.3510    -0.7020    -0.4840 c5         1 TBZ       0.207800
      4 N2         -10.1890    -0.0350     0.1860 nh         1 TBZ      -0.866400
      5 C3         -10.6310     1.0310     1.1330 c5         1 TBZ       0.208800
      6 C4         -12.1800     0.9920     0.9860 c5         1 TBZ      -0.123400
      7 C5          -8.8370    -0.2390    -0.1850 ca         1 TBZ       0.305000
      8 C6          -7.7910     0.2850     0.6100 ca         1 TBZ      -0.175000
      9 C7          -6.4720     0.0550     0.2030 ca         1 TBZ      -0.047200
     10 C8          -6.1520    -0.6470    -0.9190 ca         1 TBZ       0.059400
     11 C9          -7.1600    -1.1800    -1.7320 ca         1 TBZ       0.000000
     12 C10         -8.5070    -0.9720    -1.3560 ca         1 TBZ      -0.197000
     13 N3          -5.2990     0.4380     0.7730 na         1 TBZ      -0.311600
     14 C11         -4.2720    -0.0490    -0.0330 cc         1 TBZ       0.502400
     15 N4          -4.7720    -0.7260    -1.0900 nd         1 TBZ      -0.571100
     16 C12         -2.8400     0.1530     0.2420 ca         1 TBZ      -0.130900
     17 C13         -1.8670    -0.3830    -0.6400 ca         1 TBZ      -0.048000
     18 C14         -0.5160    -0.1670    -0.3410 ca         1 TBZ      -0.094200
     19 C15         -0.0980     0.5300     0.7510 ca         1 TBZ       0.098400
     20 C16         -1.0280     1.0740     1.6450 ca         1 TBZ      -0.051000
     21 C17         -2.4030     0.8820     1.3850 ca         1 TBZ      -0.125000
     22 N5           0.6060    -0.5620    -1.0050 na         1 TBZ      -0.302600
     23 C18          1.6990    -0.0860    -0.2830 cc         1 TBZ       0.503400
     24 N6           1.2910     0.5950     0.8100 nd         1 TBZ      -0.585100
     25 C19          3.1020    -0.3010    -0.6700 ca         1 TBZ      -0.127900
     26 C20          4.1480     0.2250     0.1310 ca         1 TBZ      -0.050000
     27 C21          5.4690    -0.0030    -0.2730 ca         1 TBZ      -0.096200
     28 C22          5.7930    -0.7030    -1.3950 ca         1 TBZ       0.098400
     29 C23          4.7900    -1.2380    -2.2120 ca         1 TBZ      -0.053000
     30 C24          3.4410    -1.0340    -1.8450 ca         1 TBZ      -0.123000
     31 N7           6.6430     0.3810     0.2990 na         1 TBZ      -0.305600
     32 C25          7.6710    -0.1060    -0.5060 cc         1 TBZ       0.504400
     33 N8           7.1720    -0.7820    -1.5630 nd         1 TBZ      -0.584100
     34 C26          9.1030     0.0940    -0.2340 ca         1 TBZ      -0.169900
     35 C27          9.5390     0.8170     0.9010 ca         1 TBZ      -0.039000
     36 C28         10.9110     1.0020     1.1510 ca         1 TBZ      -0.180000
     37 C29         11.8710     0.4650     0.2690 ca         1 TBZ       0.166100
     38 C30         11.4450    -0.2520    -0.8570 ca         1 TBZ      -0.180000
     39 C31         10.0760    -0.4380    -1.1100 ca         1 TBZ      -0.039000
     40 O1          13.2290     0.6150     0.4640 os         1 TBZ      -0.334100
     41 C32         13.7690     1.3330     1.5880 c3         1 TBZ       0.145900
     42 HN11       -12.6590    -1.0740     2.6250 hn         1 TBZ       0.512333
     43 HN12       -12.3450    -2.3350     1.6140 hn         1 TBZ       0.512333
     44 HN13       -11.1430    -1.2800     1.9810 hn         1 TBZ       0.512333
     45 H1         -13.4970    -0.6610     0.2110 hx         1 TBZ       0.117700
     46 H21        -11.5970    -0.2220    -1.4420 h1         1 TBZ       0.080700
     47 H22        -11.1870    -1.7740    -0.6660 h1         1 TBZ       0.080700
     48 H31A       -10.3260     0.8030     2.1650 h1         1 TBZ       0.068700
     49 H32        -10.2300     2.0210     0.8710 h1         1 TBZ       0.068700
     50 H41        -12.6960     1.2970     1.9030 hc         1 TBZ       0.093200
     51 H42        -12.5040     1.6830     0.1990 hc         1 TBZ       0.093200
     52 H6          -7.9920     0.8450     1.5170 ha         1 TBZ       0.115000
     53 H9          -6.9090    -1.7400    -2.6300 ha         1 TBZ       0.139000
     54 H10         -9.2870    -1.3790    -1.9900 ha         1 TBZ       0.103000
     55 HN3         -5.1800     0.9740     1.6200 hn         1 TBZ       0.362000
     56 H13         -2.1520    -0.9470    -1.5260 ha         1 TBZ       0.144000
     57 H16         -0.6950     1.6300     2.5170 ha         1 TBZ       0.135000
     58 H17         -3.1220     1.3060     2.0810 ha         1 TBZ       0.099000
     59 HN5          0.6530    -1.0990    -1.8590 hn         1 TBZ       0.365000
     60 H20          3.9390     0.7910     1.0370 ha         1 TBZ       0.143000
     61 H23          5.0470    -1.7970    -3.1080 ha         1 TBZ       0.135000
     62 H24          2.6650    -1.4510    -2.4830 ha         1 TBZ       0.104000
     63 HN7          6.7600     0.9170     1.1470 hn         1 TBZ       0.361000
     64 H27          8.8240     1.2430     1.6000 ha         1 TBZ       0.122500
     65 H28         11.2070     1.5630     2.0330 ha         1 TBZ       0.128500
     66 H30         12.1820    -0.6670    -1.5400 ha         1 TBZ       0.128500
     67 H31          9.7750    -1.0000    -1.9920 ha         1 TBZ       0.122500
     68 H321        14.8660     1.3310     1.5490 h1         1 TBZ       0.045367
     69 H322        13.4320     2.3770     1.5820 h1         1 TBZ       0.045367
     70 H323        13.4620     0.8680     2.5330 h1         1 TBZ       0.045367
@<TRIPOS>BOND
     1     1     2 1   
     2     1    42 1   
     3     1    43 1   
     4     1    44 1   
     5     2     3 1   
     6     2     6 1   
     7     2    45 1   
     8     3     4 1   
     9     3    46 1   
    10     3    47 1   
    11     4     5 1   
    12     4     7 1   
    13     5     6 1   
    14     5    48 1   
    15     5    49 1   
    16     6    50 1   
    17     6    51 1   
    18     7     8 ar  
    19     7    12 ar  
    20     8     9 ar  
    21     8    52 1   
    22     9    10 ar  
    23     9    13 1   
    24    10    11 ar  
    25    10    15 1   
    26    11    12 ar  
    27    11    53 1   
    28    12    54 1   
    29    13    14 1   
    30    13    55 1   
    31    14    15 2   
    32    14    16 1   
    33    16    17 ar  
    34    16    21 ar  
    35    17    18 ar  
    36    17    56 1   
    37    18    19 ar  
    38    18    22 1   
    39    19    20 ar  
    40    19    24 1   
    41    20    21 ar  
    42    20    57 1   
    43    21    58 1   
    44    22    23 1   
    45    22    59 1   
    46    23    24 2   
    47    23    25 1   
    48    25    26 ar  
    49    25    30 ar  
    50    26    27 ar  
    51    26    60 1   
    52    27    28 ar  
    53    27    31 1   
    54    28    29 ar  
    55    28    33 1   
    56    29    30 ar  
    57    29    61 1   
    58    30    62 1   
    59    31    32 1   
    60    31    63 1   
    61    32    33 2   
    62    32    34 1   
    63    34    35 ar  
    64    34    39 ar  
    65    35    36 ar  
    66    35    64 1   
    67    36    37 ar  
    68    36    65 1   
    69    37    38 ar  
    70    37    40 1   
    71    38    39 ar  
    72    38    66 1   
    73    39    67 1   
    74    40    41 1   
    75    41    68 1   
    76    41    69 1   
    77    41    70 1   
@<TRIPOS>SUBSTRUCTURE
     1 TBZ         1 TEMP              0 ****  ****    0 ROOT
