@<TRIPOS>MOLECULE
TBZ
   70    77     1     0     0
SMALL
bcc


@<TRIPOS>ATOM
      1 N1         -12.5870    -1.0890     1.0890 nz         1 TBZ      -0.835600
      2 C1         -12.3110     0.0590     0.1720 c5         1 TBZ       0.127500
      3 C2         -11.0970    -0.2580    -0.6800 c5         1 TBZ       0.207800
      4 N2         -10.0020     0.0450     0.2150 nh         1 TBZ      -0.728000
      5 C3         -10.3740     1.0350     1.2140 c5         1 TBZ       0.208800
      6 C4         -11.8640     1.2750     0.9650 c5         1 TBZ      -0.123400
      7 C5          -8.6870    -0.2150    -0.0910 ca         1 TBZ       0.166600
      8 C6          -7.6670     0.2330     0.7550 ca         1 TBZ      -0.193000
      9 C7          -6.3620    -0.0770     0.3990 ca         1 TBZ      -0.047200
     10 C8          -6.0250    -0.8050    -0.7520 ca         1 TBZ       0.059400
     11 C9          -7.0480    -1.2440    -1.5900 ca         1 TBZ      -0.018000
     12 C10         -8.3540    -0.9460    -1.2600 ca         1 TBZ      -0.215000
     13 N3          -5.1620     0.2050     0.9890 na         1 TBZ      -0.261300
     14 C11         -4.1780    -0.3320     0.2060 cc         1 TBZ       0.502400
     15 N4          -4.6630    -0.9450    -0.8410 nd         1 TBZ      -0.571100
     16 C12         -2.7550    -0.2140     0.5140 ca         1 TBZ      -0.130900
     17 C13         -1.8340    -0.6300    -0.4440 ca         1 TBZ      -0.066000
     18 C14         -0.4940    -0.4980    -0.1290 ca         1 TBZ      -0.094200
     19 C15         -0.0430     0.0310     1.0940 ca         1 TBZ       0.098400
     20 C16         -0.9740     0.4370     2.0490 ca         1 TBZ      -0.069000
     21 C17         -2.3150     0.3080     1.7480 ca         1 TBZ      -0.143000
     22 N5           0.6500    -0.7910    -0.8180 na         1 TBZ      -0.252300
     23 C18          1.7060    -0.4430    -0.0300 cc         1 TBZ       0.503400
     24 N6           1.3230     0.0500     1.1230 nd         1 TBZ      -0.585100
     25 C19          3.0960    -0.5990    -0.4430 ca         1 TBZ      -0.127900
     26 C20          4.0820     0.0450     0.3010 ca         1 TBZ      -0.068000
     27 C21          5.3890    -0.1100    -0.1220 ca         1 TBZ      -0.096200
     28 C22          5.7440    -0.8770    -1.2460 ca         1 TBZ       0.098400
     29 C23          4.7490    -1.5270    -1.9760 ca         1 TBZ      -0.071000
     30 C24          3.4400    -1.3800    -1.5650 ca         1 TBZ      -0.141000
     31 N7           6.5770     0.3760     0.3510 na         1 TBZ      -0.255300
     32 C25          7.5640    -0.0880    -0.4630 cc         1 TBZ       0.504400
     33 N8           7.0970    -0.8430    -1.4290 nd         1 TBZ      -0.584100
     34 C26          8.9750     0.2270    -0.2780 ca         1 TBZ      -0.169900
     35 C27          9.4380     0.9930     0.7880 ca         1 TBZ      -0.057000
     36 C28         10.7870     1.2790     0.9390 ca         1 TBZ      -0.198000
     37 C29         11.7070     0.7950     0.0110 ca         1 TBZ       0.166100
     38 C30         11.2510     0.0240    -1.0640 ca         1 TBZ      -0.198000
     39 C31          9.9090    -0.2530    -1.2020 ca         1 TBZ      -0.057000
     40 O1          13.0270     1.0160     0.0660 os         1 TBZ      -0.310900
     41 C32         13.5450     1.7910     1.1320 c3         1 TBZ       0.122700
     42 HN11       -13.2990    -0.8570     1.7820 hn         1 TBZ       0.457133
     43 HN12       -12.9310    -1.9030     0.5800 hn         1 TBZ       0.457133
     44 HN13       -11.7550    -1.3880     1.6000 hn         1 TBZ       0.457133
     45 H1         -13.2170     0.2150    -0.4070 hx         1 TBZ       0.117700
     46 H21        -11.1130     0.3730    -1.5770 h1         1 TBZ       0.080700
     47 H22        -11.0830    -1.2990    -1.0110 h1         1 TBZ       0.080700
     48 H31A       -10.1840     0.6620     2.2250 h1         1 TBZ       0.068700
     49 H32         -9.8030     1.9620     1.1030 h1         1 TBZ       0.068700
     50 H41        -12.4340     1.4320     1.8810 hc         1 TBZ       0.093200
     51 H42        -12.0100     2.1520     0.3350 hc         1 TBZ       0.093200
     52 H6          -7.8760     0.7910     1.6570 ha         1 TBZ       0.133000
     53 H9          -6.8280    -1.8030    -2.4910 ha         1 TBZ       0.157000
     54 H10         -9.1380    -1.2800    -1.9260 ha         1 TBZ       0.121000
     55 HN3         -5.0370     0.7510     1.8250 hn         1 TBZ       0.311700
     56 H13         -2.1640    -1.0310    -1.3920 ha         1 TBZ       0.162000
     57 H16         -0.6560     0.8400     3.0010 ha         1 TBZ       0.153000
     58 H17         -3.0340     0.6120     2.4970 ha         1 TBZ       0.117000
     59 HN5          0.6930    -1.1430    -1.7600 hn         1 TBZ       0.314700
     60 H20          3.8230     0.6430     1.1640 ha         1 TBZ       0.161000
     61 H23          4.9940    -2.1320    -2.8380 ha         1 TBZ       0.153000
     62 H24          2.6720    -1.9010    -2.1220 ha         1 TBZ       0.122000
     63 HN7          6.6850     0.9800     1.1500 hn         1 TBZ       0.310700
     64 H27          8.7610     1.3880     1.5340 ha         1 TBZ       0.140500
     65 H28         11.0980     1.8740     1.7870 ha         1 TBZ       0.146500
     66 H30         11.9620    -0.3540    -1.7880 ha         1 TBZ       0.146500
     67 H31          9.5740    -0.8490    -2.0400 ha         1 TBZ       0.140500
     68 H321        14.6200     1.8420     0.9810 h1         1 TBZ       0.045367
     69 H322        13.1400     2.8060     1.1300 h1         1 TBZ       0.045367
     70 H323        13.3460     1.3310     2.1030 h1         1 TBZ       0.045367
@<TRIPOS>BOND
     1     1     2 1   
     2     1    42 1   
     3     1    43 1   
     4     1    44 1   
     5     2     3 1   
     6     2     6 1   
     7     2    45 1   
     8     3     4 1   
     9     3    46 1   
    10     3    47 1   
    11     4     5 1   
    12     4     7 1   
    13     5     6 1   
    14     5    48 1   
    15     5    49 1   
    16     6    50 1   
    17     6    51 1   
    18     7     8 ar  
    19     7    12 ar  
    20     8     9 ar  
    21     8    52 1   
    22     9    10 ar  
    23     9    13 1   
    24    10    11 ar  
    25    10    15 1   
    26    11    12 ar  
    27    11    53 1   
    28    12    54 1   
    29    13    14 1   
    30    13    55 1   
    31    14    15 2   
    32    14    16 1   
    33    16    17 ar  
    34    16    21 ar  
    35    17    18 ar  
    36    17    56 1   
    37    18    19 ar  
    38    18    22 1   
    39    19    20 ar  
    40    19    24 1   
    41    20    21 ar  
    42    20    57 1   
    43    21    58 1   
    44    22    23 1   
    45    22    59 1   
    46    23    24 2   
    47    23    25 1   
    48    25    26 ar  
    49    25    30 ar  
    50    26    27 ar  
    51    26    60 1   
    52    27    28 ar  
    53    27    31 1   
    54    28    29 ar  
    55    28    33 1   
    56    29    30 ar  
    57    29    61 1   
    58    30    62 1   
    59    31    32 1   
    60    31    63 1   
    61    32    33 2   
    62    32    34 1   
    63    34    35 ar  
    64    34    39 ar  
    65    35    36 ar  
    66    35    64 1   
    67    36    37 ar  
    68    36    65 1   
    69    37    38 ar  
    70    37    40 1   
    71    38    39 ar  
    72    38    66 1   
    73    39    67 1   
    74    40    41 1   
    75    41    68 1   
    76    41    69 1   
    77    41    70 1   
@<TRIPOS>SUBSTRUCTURE
     1 TBZ         1 TEMP              0 ****  ****    0 ROOT
