@<TRIPOS>MOLECULE
TC0
   55    59     1     0     0
SMALL
No Charge or Current Charge


@<TRIPOS>ATOM
      1 C1         -10.6530     1.5080     1.7470 cx         1 TC0      -0.125400
      2 C2         -10.9640     0.1950     1.0710 cx         1 TC0      -0.125400
      3 C3         -10.0300     1.1800     0.4130 cx         1 TC0       0.097500
      4 N1          -8.6210     0.8580     0.4080 n7         1 TC0      -0.845400
      5 C4          -8.1800     0.0190    -0.7180 c3         1 TC0       0.219100
      6 C5          -6.6830    -0.2380    -0.6280 ca         1 TC0      -0.136300
      7 C6          -6.1880    -1.2630     0.2000 ca         1 TC0      -0.059000
      8 C7          -4.8050    -1.5040     0.2780 ca         1 TC0      -0.175500
      9 C10         -5.7800     0.5390    -1.3790 ca         1 TC0      -0.059000
     10 C9          -4.3980     0.2940    -1.2970 ca         1 TC0      -0.175500
     11 C8          -3.9020    -0.7220    -0.4600 ca         1 TC0       0.335000
     12 N2          -2.5390    -1.0020    -0.3710 nu         1 TC0      -0.938900
     13 C11         -1.4240    -0.2240    -0.4050 cc         1 TC0       0.518900
     14 C12         -0.1600    -0.7860    -0.2570 cc         1 TC0      -0.270000
     15 N4          -1.4390     1.0740    -0.5430 nd         1 TC0      -0.567800
     16 N3          -0.0740     1.3820    -0.4920 na         1 TC0      -0.005200
     17 C13          0.7330     0.2430    -0.3150 cd         1 TC0      -0.055000
     18 C14          2.2050     0.2000    -0.2140 ca         1 TC0      -0.030000
     19 C19          2.9680     1.3830    -0.2980 ca         1 TC0      -0.096000
     20 C18          4.3700     1.3400    -0.2030 ca         1 TC0      -0.094500
     21 C15          2.8790    -1.0250    -0.0350 ca         1 TC0      -0.096000
     22 C16          4.2810    -1.0650     0.0610 ca         1 TC0      -0.094500
     23 C17          5.0550     0.1170    -0.0140 cp         1 TC0       0.000000
     24 C20          6.5510     0.0840     0.0690 cp         1 TC0      -0.116000
     25 C21          7.3170     0.8060    -0.8810 ca         1 TC0      -0.023000
     26 C22          8.7210     0.7970    -0.8370 ca         1 TC0      -0.245000
     27 C23          9.3830     0.0710     0.1590 ca         1 TC0       0.187100
     28 O2          10.7410     0.0590     0.2070 oh         1 TC0      -0.530100
     29 C24          8.6510    -0.6440     1.1120 ca         1 TC0      -0.252000
     30 C25          7.2480    -0.6410     1.0750 ca         1 TC0       0.193100
     31 O1           6.5790    -1.3270     2.0460 oh         1 TC0      -0.525100
     32 H11C       -11.4320     2.2660     1.7650 hc         1 TC0       0.073450
     33 H12C       -10.0190     1.4850     2.6300 hc         1 TC0       0.073450
     34 H21C       -10.5370    -0.7090     1.4980 hc         1 TC0       0.073450
     35 H22C       -11.9520     0.0700     0.6340 hc         1 TC0       0.073450
     36 H3         -10.4040     1.7220    -0.4580 h1         1 TC0       0.051700
     37 H1          -8.0740     1.7270     0.3760 hn         1 TC0       0.419000
     38 H41C        -8.7110    -0.9440    -0.7120 h1         1 TC0       0.034200
     39 H42C        -8.4070     0.5110    -1.6750 h1         1 TC0       0.034200
     40 H6          -6.8770    -1.8710     0.7830 ha         1 TC0       0.111500
     41 H10         -6.1480     1.3290    -2.0300 ha         1 TC0       0.111500
     42 H7          -4.4380    -2.2980     0.9210 ha         1 TC0       0.124500
     43 H9          -3.7160     0.8900    -1.8950 ha         1 TC0       0.124500
     44 H2          -2.3300    -1.9350    -0.0260 hn         1 TC0       0.496000
     45 H12          0.0440    -1.8410    -0.1250 ha         1 TC0       0.145000
     46 HA           0.2560     2.3420    -0.5750 hn         1 TC0       0.373000
     47 H19          2.4840     2.3460    -0.4380 ha         1 TC0       0.114000
     48 H15          2.3230    -1.9570     0.0280 ha         1 TC0       0.114000
     49 H18          4.9340     2.2680    -0.2660 ha         1 TC0       0.119500
     50 H16          4.7750    -2.0260     0.1850 ha         1 TC0       0.119500
     51 H21          6.8140     1.3680    -1.6650 ha         1 TC0       0.118000
     52 H22          9.2830     1.3560    -1.5810 ha         1 TC0       0.119000
     53 HB          11.0760     0.6100    -0.5320 ho         1 TC0       0.469000
     54 H24          9.1820    -1.1960     1.8830 ha         1 TC0       0.131000
     55 HC           7.2400    -1.7320     2.6450 ho         1 TC0       0.468000
@<TRIPOS>BOND
     1     1     2 1   
     2     1     3 1   
     3     1    32 1   
     4     1    33 1   
     5     2     3 1   
     6     2    34 1   
     7     2    35 1   
     8     3     4 1   
     9     3    36 1   
    10     4     5 1   
    11     4    37 1   
    12     5     6 1   
    13     5    38 1   
    14     5    39 1   
    15     6     7 ar  
    16     6     9 ar  
    17     7     8 ar  
    18     7    40 1   
    19     8    11 ar  
    20     8    42 1   
    21     9    10 ar  
    22     9    41 1   
    23    10    11 ar  
    24    10    43 1   
    25    11    12 1   
    26    12    13 1   
    27    12    44 1   
    28    13    14 1   
    29    13    15 2   
    30    14    17 2   
    31    14    45 1   
    32    15    16 1   
    33    16    17 1   
    34    16    46 1   
    35    17    18 1   
    36    18    19 ar  
    37    18    21 ar  
    38    19    20 ar  
    39    19    47 1   
    40    20    23 ar  
    41    20    49 1   
    42    21    22 ar  
    43    21    48 1   
    44    22    23 ar  
    45    22    50 1   
    46    23    24 1   
    47    24    25 ar  
    48    24    30 ar  
    49    25    26 ar  
    50    25    51 1   
    51    26    27 ar  
    52    26    52 1   
    53    27    28 1   
    54    27    29 ar  
    55    28    53 1   
    56    29    30 ar  
    57    29    54 1   
    58    30    31 1   
    59    31    55 1   
@<TRIPOS>SUBSTRUCTURE
     1 TC0         1 TEMP              0 ****  ****    0 ROOT
