@<TRIPOS>MOLECULE
TC0
   55    59     1     0     0
SMALL
bcc


@<TRIPOS>ATOM
      1 C1         -11.0120     1.0590     1.3490 cx         1 TC0      -0.125400
      2 C2         -11.0430    -0.0150     0.3010 cx         1 TC0      -0.125400
      3 C3         -10.0800     1.1230     0.1830 cx         1 TC0       0.097500
      4 N1          -8.6990     0.8370     0.4150 n7         1 TC0      -0.790200
      5 C4          -8.0180     0.3510    -0.7770 c3         1 TC0       0.219100
      6 C5          -6.5780     0.0400    -0.4840 ca         1 TC0      -0.136300
      7 C6          -6.2280    -1.0460     0.3190 ca         1 TC0      -0.077000
      8 C7          -4.9080    -1.3300     0.6060 ca         1 TC0      -0.193500
      9 C10         -5.5490     0.8350    -0.9670 ca         1 TC0      -0.077000
     10 C9          -4.2120     0.5730    -0.6850 ca         1 TC0      -0.193500
     11 C8          -3.8700    -0.5250     0.1080 ca         1 TC0       0.196600
     12 N2          -2.5780    -0.8830     0.4340 nu         1 TC0      -0.745300
     13 C11         -1.3830    -0.2970     0.0910 cc         1 TC0       0.584200
     14 C12         -0.1160    -0.8330     0.4080 cc         1 TC0      -0.353300
     15 N4          -1.2740     0.8470    -0.5610 nd         1 TC0      -0.567800
     16 N3           0.0450     1.0540    -0.6620 na         1 TC0      -0.005600
     17 C13          0.7840     0.0790    -0.1050 cd         1 TC0      -0.004300
     18 C14          2.2430     0.0830    -0.0920 ca         1 TC0      -0.030000
     19 C19          2.9730     1.2620    -0.2390 ca         1 TC0      -0.114000
     20 C18          4.3570     1.2400    -0.2230 ca         1 TC0      -0.112500
     21 C15          2.9420    -1.1130     0.0740 ca         1 TC0      -0.114000
     22 C16          4.3250    -1.1310     0.0960 ca         1 TC0      -0.112500
     23 C17          5.0610     0.0470    -0.0560 cp         1 TC0       0.000000
     24 C20          6.5380     0.0510    -0.0850 cp         1 TC0      -0.116000
     25 C21          7.2160     0.7190    -1.1010 ca         1 TC0      -0.041000
     26 C22          8.5980     0.7650    -1.1730 ca         1 TC0      -0.263000
     27 C23          9.3460     0.1270    -0.1870 ca         1 TC0       0.187100
     28 O2          10.6910     0.1230    -0.1800 oh         1 TC0      -0.491100
     29 C24          8.7000    -0.5410     0.8490 ca         1 TC0      -0.270000
     30 C25          7.3120    -0.5780     0.9020 ca         1 TC0       0.193100
     31 O1           6.6710    -1.1920     1.9130 oh         1 TC0      -0.486100
     32 H11C       -11.8320     1.7640     1.3900 hc         1 TC0       0.073450
     33 H12C       -10.5850     0.8060     2.3110 hc         1 TC0       0.073450
     34 H21C       -10.6320    -0.9820     0.5650 hc         1 TC0       0.073450
     35 H22C       -11.8850    -0.0520    -0.3780 hc         1 TC0       0.073450
     36 H3         -10.3140     1.8670    -0.5820 h1         1 TC0       0.051700
     37 H1          -8.2290     1.6700     0.7490 hn         1 TC0       0.363800
     38 H41C        -8.5370    -0.5550    -1.1050 h1         1 TC0       0.034200
     39 H42C        -8.0720     1.0600    -1.6170 h1         1 TC0       0.034200
     40 H6          -7.0030    -1.6880     0.7210 ha         1 TC0       0.129500
     41 H10         -5.7860     1.6920    -1.5870 ha         1 TC0       0.129500
     42 H7          -4.6670    -2.1890     1.2220 ha         1 TC0       0.142500
     43 H9          -3.4470     1.2220    -1.0810 ha         1 TC0       0.142500
     44 H2          -2.4860    -1.7280     0.9750 hn         1 TC0       0.440800
     45 H12          0.1000    -1.7400     0.9490 ha         1 TC0       0.163000
     46 HA           0.3730     1.8510    -1.1820 hn         1 TC0       0.322700
     47 H19          2.4680     2.2140    -0.3460 ha         1 TC0       0.132000
     48 H15          2.3990    -2.0450     0.1710 ha         1 TC0       0.132000
     49 H18          4.9010     2.1710    -0.3240 ha         1 TC0       0.137500
     50 H16          4.8340    -2.0790     0.2050 ha         1 TC0       0.137500
     51 H21          6.6400     1.2060    -1.8780 ha         1 TC0       0.136000
     52 H22          9.0850     1.2840    -1.9900 ha         1 TC0       0.137000
     53 HB          11.0330     0.6060    -0.9410 ho         1 TC0       0.430000
     54 H24          9.2890    -1.0230     1.6220 ha         1 TC0       0.149000
     55 HC           7.3050    -1.5770     2.5280 ho         1 TC0       0.429000
@<TRIPOS>BOND
     1     1     2 1   
     2     1     3 1   
     3     1    32 1   
     4     1    33 1   
     5     2     3 1   
     6     2    34 1   
     7     2    35 1   
     8     3     4 1   
     9     3    36 1   
    10     4     5 1   
    11     4    37 1   
    12     5     6 1   
    13     5    38 1   
    14     5    39 1   
    15     6     7 ar  
    16     6     9 ar  
    17     7     8 ar  
    18     7    40 1   
    19     8    11 ar  
    20     8    42 1   
    21     9    10 ar  
    22     9    41 1   
    23    10    11 ar  
    24    10    43 1   
    25    11    12 1   
    26    12    13 1   
    27    12    44 1   
    28    13    14 1   
    29    13    15 2   
    30    14    17 2   
    31    14    45 1   
    32    15    16 1   
    33    16    17 1   
    34    16    46 1   
    35    17    18 1   
    36    18    19 ar  
    37    18    21 ar  
    38    19    20 ar  
    39    19    47 1   
    40    20    23 ar  
    41    20    49 1   
    42    21    22 ar  
    43    21    48 1   
    44    22    23 ar  
    45    22    50 1   
    46    23    24 1   
    47    24    25 ar  
    48    24    30 ar  
    49    25    26 ar  
    50    25    51 1   
    51    26    27 ar  
    52    26    52 1   
    53    27    28 1   
    54    27    29 ar  
    55    28    53 1   
    56    29    30 ar  
    57    29    54 1   
    58    30    31 1   
    59    31    55 1   
@<TRIPOS>SUBSTRUCTURE
     1 TC0         1 TEMP              0 ****  ****    0 ROOT
