@<TRIPOS>MOLECULE
TC2
   69    71     1     0     0
SMALL
abcg2


@<TRIPOS>ATOM
      1 C1          -5.5440     2.4900    -0.2960 ca         1 TC2      -0.235600
      2 C2          -5.9230     3.7930     0.0540 ca         1 TC2       0.137100
      3 C3          -7.1530     4.3110    -0.3920 ca         1 TC2       0.097100
      4 C4          -7.9810     3.5350    -1.1770 ca         1 TC2      -0.093500
      5 C5          -7.6040     2.2400    -1.5290 ca         1 TC2      -0.126000
      6 C6          -6.4030     1.7230    -1.0950 ca         1 TC2      -0.084500
      7 C7          -4.2370     1.9990     0.2080 c          1 TC2       0.626700
      8 O8          -3.5120     2.7410     0.8940 o          1 TC2      -0.648600
      9 N9          -3.8700     0.7500    -0.0780 ns         1 TC2      -0.481400
     10 C10         -2.6120     0.1720     0.3400 c3         1 TC2       0.098000
     11 C11         -1.4780     0.4830    -0.6330 c3         1 TC2       0.155300
     12 N12         -0.2660    -0.2180    -0.2480 n3         1 TC2      -0.737600
     13 C13         -0.2470    -1.5950    -0.7040 c3         1 TC2       0.155300
     14 O14         -5.1770     4.6050     0.8090 oh         1 TC2      -0.580100
     15 O15         -7.5290     5.5620    -0.0590 oh         1 TC2      -0.533100
     16 C16          0.5180    -2.4800     0.2690 c3         1 TC2       0.098000
     17 N17          0.5810    -3.8310    -0.2530 ns         1 TC2      -0.481400
     18 C18          0.9460     0.5030    -0.5870 c3         1 TC2       0.161800
     19 C19          1.2460     1.5750     0.4500 c3         1 TC2       0.099000
     20 N20          2.4180     2.3290     0.0490 ns         1 TC2      -0.503900
     21 C21          3.0480     3.1680     0.8710 c          1 TC2       0.616300
     22 O22          2.7400     3.3730     2.0320 o          1 TC2      -0.548100
     23 C23          4.1840     3.9140     0.2260 cc         1 TC2       0.029400
     24 N24          5.3990     3.8510     0.8010 n          1 TC2      -0.104500
     25 C25          6.5310     4.5440     0.3960 c          1 TC2       0.534200
     26 C26          6.3180     5.3970    -0.7250 cc         1 TC2      -0.312200
     27 C27          5.0980     5.4760    -1.3280 cd         1 TC2      -0.080000
     28 C28          4.0050     4.7240    -0.8570 cd         1 TC2      -0.290000
     29 O29          5.5770     3.0010     1.8400 oh         1 TC2      -0.429100
     30 O30          7.5730     4.3450     1.0270 o          1 TC2      -0.572000
     31 C31          1.2310    -4.8120     0.3680 c          1 TC2       0.626700
     32 O32          1.8350    -4.5990     1.4330 o          1 TC2      -0.648600
     33 C33          1.2240    -6.1700    -0.2320 ca         1 TC2      -0.235600
     34 C34          1.9120    -7.1810     0.4520 ca         1 TC2       0.137100
     35 C35          1.9390    -8.4880    -0.0670 ca         1 TC2       0.097100
     36 C36          1.2860    -8.7710    -1.2490 ca         1 TC2      -0.093500
     37 C37          0.6010    -7.7660    -1.9320 ca         1 TC2      -0.126000
     38 C38          0.5690    -6.4840    -1.4310 ca         1 TC2      -0.084500
     39 O39          2.5660    -6.9870     1.6010 oh         1 TC2      -0.580100
     40 O40          2.5960    -9.4700     0.5820 oh         1 TC2      -0.533100
     41 H4          -8.9250     3.9440    -1.5170 ha         1 TC2       0.133500
     42 H5          -8.2590     1.6430    -2.1480 ha         1 TC2       0.119500
     43 H6          -6.1460     0.7150    -1.3920 ha         1 TC2       0.101500
     44 HN9         -4.4560     0.1840    -0.6660 hn         1 TC2       0.320000
     45 H10         -2.3520     0.5310     1.3350 h1         1 TC2       0.068200
     46 H10A        -2.7670    -0.9050     0.4170 h1         1 TC2       0.068200
     47 H11         -1.7880     0.2380    -1.6600 h1         1 TC2       0.039700
     48 H11A        -1.2940     1.5580    -0.6160 h1         1 TC2       0.039700
     49 H13         -1.2740    -1.9620    -0.7690 h1         1 TC2       0.039700
     50 H13A         0.1760    -1.6890    -1.7160 h1         1 TC2       0.039700
     51 HO14        -4.3520     4.0930     1.0300 ho         1 TC2       0.535500
     52 HO15        -6.8530     5.9810     0.4870 ho         1 TC2       0.487500
     53 H16          1.5300    -2.0990     0.4260 h1         1 TC2       0.068200
     54 H16A         0.0130    -2.4690     1.2380 h1         1 TC2       0.068200
     55 HN17         0.0920    -4.0210    -1.1110 hn         1 TC2       0.320000
     56 H18          1.7860    -0.1940    -0.6070 h1         1 TC2       0.037700
     57 H18A         0.8890     0.9500    -1.5920 h1         1 TC2       0.037700
     58 H19          0.3960     2.2520     0.5740 h1         1 TC2       0.069700
     59 H19A         1.4260     1.1010     1.4160 h1         1 TC2       0.069700
     60 HN20         2.7530     2.2290    -0.8970 hn         1 TC2       0.319500
     61 H26          7.1620     5.9720    -1.0810 ha         1 TC2       0.216000
     62 H27          4.9640     6.1280    -2.1810 ha         1 TC2       0.193000
     63 H28          3.0320     4.8000    -1.3190 ha         1 TC2       0.206000
     64 HO29         6.5310     3.1100     2.0360 ho         1 TC2       0.496000
     65 H36          1.3090    -9.7810    -1.6390 ha         1 TC2       0.133500
     66 H37          0.0930    -8.0000    -2.8570 ha         1 TC2       0.119500
     67 H38          0.0230    -5.7330    -1.9860 ha         1 TC2       0.101500
     68 HO39         2.4500    -6.0230     1.8240 ho         1 TC2       0.535500
     69 HO40         2.9930    -9.1270     1.3920 ho         1 TC2       0.487500
@<TRIPOS>BOND
     1     1     2 ar  
     2     1     6 ar  
     3     1     7 1   
     4     2     3 ar  
     5     2    14 1   
     6     3     4 ar  
     7     3    15 1   
     8     4     5 ar  
     9     4    41 1   
    10     5     6 ar  
    11     5    42 1   
    12     6    43 1   
    13     7     8 2   
    14     7     9 1   
    15     9    10 1   
    16     9    44 1   
    17    10    11 1   
    18    10    45 1   
    19    10    46 1   
    20    11    12 1   
    21    11    47 1   
    22    11    48 1   
    23    12    13 1   
    24    12    18 1   
    25    13    16 1   
    26    13    49 1   
    27    13    50 1   
    28    14    51 1   
    29    15    52 1   
    30    16    17 1   
    31    16    53 1   
    32    16    54 1   
    33    17    31 1   
    34    17    55 1   
    35    18    19 1   
    36    18    56 1   
    37    18    57 1   
    38    19    20 1   
    39    19    58 1   
    40    19    59 1   
    41    20    21 1   
    42    20    60 1   
    43    21    22 2   
    44    21    23 1   
    45    23    24 1   
    46    23    28 2   
    47    24    25 1   
    48    24    29 1   
    49    25    26 1   
    50    25    30 2   
    51    26    27 2   
    52    26    61 1   
    53    27    28 1   
    54    27    62 1   
    55    28    63 1   
    56    29    64 1   
    57    31    32 2   
    58    31    33 1   
    59    33    34 ar  
    60    33    38 ar  
    61    34    35 ar  
    62    34    39 1   
    63    35    36 ar  
    64    35    40 1   
    65    36    37 ar  
    66    36    65 1   
    67    37    38 ar  
    68    37    66 1   
    69    38    67 1   
    70    39    68 1   
    71    40    69 1   
@<TRIPOS>SUBSTRUCTURE
     1 TC2         1 TEMP              0 ****  ****    0 ROOT
