@<TRIPOS>MOLECULE
TC2
   69    71     1     0     0
SMALL
No Charge or Current Charge


@<TRIPOS>ATOM
      1 C1          -5.6610     2.0670    -0.0390 ca         1 TC2      -0.235600
      2 C2          -6.2120     3.2640     0.4810 ca         1 TC2       0.137100
      3 C3          -7.4570     3.7470     0.0210 ca         1 TC2       0.097100
      4 C4          -8.1670     3.0440    -0.9620 ca         1 TC2      -0.093500
      5 C5          -7.6350     1.8570    -1.4880 ca         1 TC2      -0.126000
      6 C6          -6.3960     1.3710    -1.0340 ca         1 TC2      -0.084500
      7 C7          -4.3250     1.5590     0.4610 c          1 TC2       0.626700
      8 O8          -3.6890     2.1630     1.3170 o          1 TC2      -0.648600
      9 N9          -3.8570     0.3870    -0.0850 ns         1 TC2      -0.481400
     10 C10         -2.5730    -0.2440     0.2550 c3         1 TC2       0.098000
     11 C11         -1.3550     0.4990    -0.3570 c3         1 TC2       0.155300
     12 N12         -0.0100    -0.0200     0.0420 n3         1 TC2      -0.737600
     13 C13          0.2110    -1.4360    -0.3860 c3         1 TC2       0.155300
     14 O14         -5.5420     3.9720     1.4410 oh         1 TC2      -0.580100
     15 O15         -7.9670     4.9040     0.5380 oh         1 TC2      -0.533100
     16 C16          1.4640    -2.1320     0.2090 c3         1 TC2       0.098000
     17 N17          1.5590    -3.5520    -0.1600 ns         1 TC2      -0.481400
     18 C18          1.1040     0.8880    -0.3720 c3         1 TC2       0.161800
     19 C19          1.0800     2.3100     0.2500 c3         1 TC2       0.099000
     20 N20          2.2660     3.1090    -0.1000 ns         1 TC2      -0.503900
     21 C21          3.5270     2.9370     0.4490 c          1 TC2       0.616300
     22 O22          3.6930     2.0800     1.3080 o          1 TC2      -0.548100
     23 C23          4.6090     3.8580    -0.0960 cc         1 TC2       0.029400
     24 N24          5.9190     3.8340     0.4420 n          1 TC2      -0.104500
     25 C25          6.9730     4.6450    -0.0550 c          1 TC2       0.534200
     26 C26          6.6030     5.5310    -1.1580 cc         1 TC2      -0.312200
     27 C27          5.3400     5.5940    -1.6930 cd         1 TC2      -0.080000
     28 C28          4.3230     4.7370    -1.1500 cd         1 TC2      -0.290000
     29 O29          6.2540     3.0000     1.5740 oh         1 TC2      -0.429100
     30 O30          8.1130     4.6140     0.3970 o          1 TC2      -0.572000
     31 C31          0.7790    -4.5540     0.3680 c          1 TC2       0.626700
     32 O32         -0.0600    -4.3230     1.2300 o          1 TC2      -0.648600
     33 C33          1.0050    -5.9560    -0.1630 ca         1 TC2      -0.235600
     34 C34          0.2450    -7.0410     0.3370 ca         1 TC2       0.137100
     35 C35          0.4480    -8.3510    -0.1500 ca         1 TC2       0.097100
     36 C36          1.4080    -8.5950    -1.1410 ca         1 TC2      -0.093500
     37 C37          2.1690    -7.5300    -1.6470 ca         1 TC2      -0.126000
     38 C38          1.9730    -6.2230    -1.1660 ca         1 TC2      -0.084500
     39 O39         -0.7000    -6.8340     1.3040 oh         1 TC2      -0.580100
     40 O40         -0.2990    -9.3820     0.3480 oh         1 TC2      -0.533100
     41 H4          -9.1260     3.4180    -1.3150 ha         1 TC2       0.133500
     42 H5          -8.1850     1.3100    -2.2510 ha         1 TC2       0.119500
     43 H6          -6.0240     0.4470    -1.4710 ha         1 TC2       0.101500
     44 HN9         -4.4420    -0.0560    -0.7810 hn         1 TC2       0.320000
     45 H10         -2.4670    -0.2670     1.3480 h1         1 TC2       0.068200
     46 H10A        -2.6020    -1.2790    -0.1040 h1         1 TC2       0.068200
     47 H11         -1.4520     0.4770    -1.4520 h1         1 TC2       0.039700
     48 H11A        -1.4530     1.5470    -0.0550 h1         1 TC2       0.039700
     49 H13         -0.6480    -2.0510    -0.0940 h1         1 TC2       0.039700
     50 H13A         0.2750    -1.4870    -1.4820 h1         1 TC2       0.039700
     51 HO14        -4.7030     3.4590     1.6120 ho         1 TC2       0.535500
     52 HO15        -7.3110     5.2190     1.2010 ho         1 TC2       0.487500
     53 H16          2.3750    -1.6320    -0.1420 h1         1 TC2       0.068200
     54 H16A         1.4350    -2.0510     1.3040 h1         1 TC2       0.068200
     55 HN17         2.2330    -3.8230    -0.8640 hn         1 TC2       0.320000
     56 H18          2.0660     0.4460    -0.0890 h1         1 TC2       0.037700
     57 H18A         1.1140     0.9880    -1.4660 h1         1 TC2       0.037700
     58 H19          0.1940     2.8550    -0.0970 h1         1 TC2       0.069700
     59 H19A         1.0160     2.2240     1.3420 h1         1 TC2       0.069700
     60 HN20         2.1600     3.8410    -0.7890 hn         1 TC2       0.319500
     61 H26          7.4080     6.1520    -1.5340 ha         1 TC2       0.216000
     62 H27          5.1170     6.2740    -2.5160 ha         1 TC2       0.193000
     63 H28          3.3390     4.7960    -1.6050 ha         1 TC2       0.206000
     64 HO29         6.5850     2.1630     1.1780 ho         1 TC2       0.496000
     65 H36          1.5620    -9.6040    -1.5150 ha         1 TC2       0.133500
     66 H37          2.9160    -7.7170    -2.4160 ha         1 TC2       0.119500
     67 H38          2.5860    -5.4310    -1.5880 ha         1 TC2       0.101500
     68 HO39        -0.6750    -5.8550     1.4950 ho         1 TC2       0.535500
     69 HO40        -0.8980    -8.9840     1.0210 ho         1 TC2       0.487500
@<TRIPOS>BOND
     1     1     2 ar  
     2     1     6 ar  
     3     1     7 1   
     4     2     3 ar  
     5     2    14 1   
     6     3     4 ar  
     7     3    15 1   
     8     4     5 ar  
     9     4    41 1   
    10     5     6 ar  
    11     5    42 1   
    12     6    43 1   
    13     7     8 2   
    14     7     9 1   
    15     9    10 1   
    16     9    44 1   
    17    10    11 1   
    18    10    45 1   
    19    10    46 1   
    20    11    12 1   
    21    11    47 1   
    22    11    48 1   
    23    12    13 1   
    24    12    18 1   
    25    13    16 1   
    26    13    49 1   
    27    13    50 1   
    28    14    51 1   
    29    15    52 1   
    30    16    17 1   
    31    16    53 1   
    32    16    54 1   
    33    17    31 1   
    34    17    55 1   
    35    18    19 1   
    36    18    56 1   
    37    18    57 1   
    38    19    20 1   
    39    19    58 1   
    40    19    59 1   
    41    20    21 1   
    42    20    60 1   
    43    21    22 2   
    44    21    23 1   
    45    23    24 1   
    46    23    28 2   
    47    24    25 1   
    48    24    29 1   
    49    25    26 1   
    50    25    30 2   
    51    26    27 2   
    52    26    61 1   
    53    27    28 1   
    54    27    62 1   
    55    28    63 1   
    56    29    64 1   
    57    31    32 2   
    58    31    33 1   
    59    33    34 ar  
    60    33    38 ar  
    61    34    35 ar  
    62    34    39 1   
    63    35    36 ar  
    64    35    40 1   
    65    36    37 ar  
    66    36    65 1   
    67    37    38 ar  
    68    37    66 1   
    69    38    67 1   
    70    39    68 1   
    71    40    69 1   
@<TRIPOS>SUBSTRUCTURE
     1 TC2         1 TEMP              0 ****  ****    0 ROOT
