@<TRIPOS>MOLECULE
TC4
   61    60     1     0     0
SMALL
abcg2


@<TRIPOS>ATOM
      1 C1          24.2080    50.8690    20.9410 c3         1 TC4      -0.428400
      2 C2          23.7990    51.8710    19.8570 c3         1 TC4      -0.049400
      3 C3          24.4680    51.5820    18.5150 c3         1 TC4      -0.070400
      4 C4          24.0560    52.5760    17.4320 c3         1 TC4      -0.090100
      5 C5          20.9570    51.4980    23.2120 c3         1 TC4       0.212600
      6 C6          20.0320    52.3840    22.4020 c3         1 TC4       0.138300
      7 C8          21.8070    55.3820    19.0260 c3         1 TC4       0.122000
      8 C9          20.9240    56.5930    18.7320 c3         1 TC4      -0.102400
      9 C10         21.1830    57.7810    19.6560 c3         1 TC4      -0.081400
     10 C11         20.3810    59.0200    19.2660 c3         1 TC4      -0.089100
     11 C12         18.8730    52.9060    23.2370 c3         1 TC4       0.165600
     12 C13         18.2110    55.0450    22.4000 c          1 TC4       0.634100
     13 C14         17.5990    57.0290    21.0880 c3         1 TC4       0.119000
     14 C15         16.4450    57.7390    21.7960 c3         1 TC4      -0.102400
     15 C16         16.4650    59.2570    21.5990 c3         1 TC4      -0.073400
     16 C17         16.1920    59.7030    20.1630 c3         1 TC4      -0.092100
     17 N1          21.6070    54.8250    20.3550 ns         1 TC4      -0.497900
     18 N2          17.6250    55.5950    21.3240 ns         1 TC4      -0.499900
     19 O1          23.8580    52.5860    23.1180 o          1 TC4      -0.546000
     20 O2          21.9650    50.9650    22.3350 os         1 TC4      -0.601400
     21 O3          20.7950    53.5040    21.9340 os         1 TC4      -0.460100
     22 O4          20.1930    53.1310    19.7650 o          1 TC4      -0.547000
     23 O5          18.0140    53.6940    22.4050 os         1 TC4      -0.465100
     24 O6          18.8290    55.6490    23.2620 o          1 TC4      -0.531000
     25 P1          23.5280    51.2480    22.5580 p5         1 TC4       1.140800
     26 H11         23.8970    49.8530    20.6810 hc         1 TC4       0.076700
     27 H12         25.2950    50.8530    21.0690 hc         1 TC4       0.076700
     28 H21         22.7140    51.8480    19.7320 hc         1 TC4       0.053700
     29 H22         24.0540    52.8840    20.1780 hc         1 TC4       0.053700
     30 H31         25.5550    51.6040    18.6440 hc         1 TC4       0.037200
     31 H32         24.2150    50.5650    18.1990 hc         1 TC4       0.037200
     32 H41         24.5420    52.3500    16.4810 hc         1 TC4       0.033033
     33 H42         22.9750    52.5540    17.2730 hc         1 TC4       0.033033
     34 H43         24.3270    53.5960    17.7150 hc         1 TC4       0.033033
     35 H51         21.4170    52.0670    24.0200 h1         1 TC4       0.059700
     36 H52         20.4010    50.6600    23.6310 h1         1 TC4       0.059700
     37 H6          19.6520    51.8370    21.5420 h1         1 TC4       0.100700
     38 H81         21.6150    54.5880    18.3070 h1         1 TC4       0.057700
     39 H82         22.8600    55.6590    18.9400 h1         1 TC4       0.057700
     40 H91         21.1050    56.8920    17.6940 hc         1 TC4       0.049200
     41 H92         19.8720    56.2970    18.7970 hc         1 TC4       0.049200
     42 H101        20.9420    57.4990    20.6850 hc         1 TC4       0.042200
     43 H102        22.2530    58.0180    19.6420 hc         1 TC4       0.042200
     44 H111        20.5610    59.8450    19.9590 hc         1 TC4       0.032367
     45 H112        20.6510    59.3590    18.2620 hc         1 TC4       0.032367
     46 H113        19.3100    58.8090    19.2680 hc         1 TC4       0.032367
     47 H121        18.2730    52.0740    23.6040 h1         1 TC4       0.075700
     48 H122        19.2290    53.5010    24.0760 h1         1 TC4       0.075700
     49 H141        17.5430    57.1720    20.0100 h1         1 TC4       0.056200
     50 H142        18.5500    57.4440    21.4230 h1         1 TC4       0.056200
     51 H151        15.4970    57.3300    21.4330 hc         1 TC4       0.049700
     52 H152        16.5050    57.5100    22.8630 hc         1 TC4       0.049700
     53 H161        15.7170    59.7030    22.2600 hc         1 TC4       0.042700
     54 H162        17.4350    59.6470    21.9260 hc         1 TC4       0.042700
     55 H171        16.1710    60.7930    20.0900 hc         1 TC4       0.031700
     56 H172        16.9580    59.3430    19.4730 hc         1 TC4       0.031700
     57 H173        15.2270    59.3250    19.8150 hc         1 TC4       0.031700
     58 H1          22.0440    55.2670    21.1470 hn         1 TC4       0.340500
     59 H2          17.1400    54.9810    20.6900 hn         1 TC4       0.331500
     60 HP1         23.9400    50.2040    23.4070 hp         1 TC4      -0.109400
     61 C7          20.8120    53.7720    20.5990 c          1 TC4       0.637100
@<TRIPOS>BOND
     1     1     2 1   
     2     1    25 1   
     3     1    26 1   
     4     1    27 1   
     5     2     3 1   
     6     2    28 1   
     7     2    29 1   
     8     3     4 1   
     9     3    30 1   
    10     3    31 1   
    11     4    32 1   
    12     4    33 1   
    13     4    34 1   
    14     5     6 1   
    15     5    20 1   
    16     5    35 1   
    17     5    36 1   
    18     6    11 1   
    19     6    21 1   
    20     6    37 1   
    21     7     8 1   
    22     7    17 1   
    23     7    38 1   
    24     7    39 1   
    25     8     9 1   
    26     8    40 1   
    27     8    41 1   
    28     9    10 1   
    29     9    42 1   
    30     9    43 1   
    31    10    44 1   
    32    10    45 1   
    33    10    46 1   
    34    11    23 1   
    35    11    47 1   
    36    11    48 1   
    37    12    18 1   
    38    12    23 1   
    39    12    24 2   
    40    13    14 1   
    41    13    18 1   
    42    13    49 1   
    43    13    50 1   
    44    14    15 1   
    45    14    51 1   
    46    14    52 1   
    47    15    16 1   
    48    15    53 1   
    49    15    54 1   
    50    16    55 1   
    51    16    56 1   
    52    16    57 1   
    53    17    58 1   
    54    17    61 1   
    55    18    59 1   
    56    19    25 2   
    57    20    25 1   
    58    21    61 1   
    59    22    61 2   
    60    25    60 1   
@<TRIPOS>SUBSTRUCTURE
     1 TC4         1 TEMP              0 ****  ****    0 ROOT
