@<TRIPOS>MOLECULE
TC4
   61    60     1     0     0
SMALL
No Charge or Current Charge


@<TRIPOS>ATOM
      1 C1          24.1760    50.8920    20.8510 c3         1 TC4      -0.428400
      2 C2          23.5620    51.7760    19.7390 c3         1 TC4      -0.049400
      3 C3          24.0570    51.4000    18.3280 c3         1 TC4      -0.070400
      4 C4          23.4590    52.2950    17.2250 c3         1 TC4      -0.090100
      5 C5          21.0530    51.4200    23.3080 c3         1 TC4       0.212600
      6 C6          20.2200    52.3990    22.4340 c3         1 TC4       0.138300
      7 C8          22.2670    55.7100    19.4510 c3         1 TC4       0.122000
      8 C9          21.2780    56.8510    19.1270 c3         1 TC4      -0.102400
      9 C10         21.2450    57.9760    20.1890 c3         1 TC4      -0.081400
     10 C11         20.4140    59.1980    19.7480 c3         1 TC4      -0.089100
     11 C12         18.9630    52.9130    23.1960 c3         1 TC4       0.165600
     12 C13         18.2640    54.9840    22.1590 c          1 TC4       0.634100
     13 C14         17.3940    56.8070    20.6860 c3         1 TC4       0.119000
     14 C15         16.5210    57.6970    21.5960 c3         1 TC4      -0.102400
     15 C16         16.5520    59.1980    21.2220 c3         1 TC4      -0.073400
     16 C17         15.9990    59.5140    19.8170 c3         1 TC4      -0.092100
     17 N1          21.9510    55.0000    20.6900 ns         1 TC4      -0.497900
     18 N2          17.4530    55.4250    21.1530 ns         1 TC4      -0.499900
     19 O1          23.8330    52.7560    22.8930 o          1 TC4      -0.546000
     20 O2          22.0840    50.8100    22.5040 os         1 TC4      -0.601400
     21 O3          21.0700    53.5170    22.0750 os         1 TC4      -0.460100
     22 O4          20.2880    53.6280    19.9070 o          1 TC4      -0.547000
     23 O5          18.0890    53.6390    22.3010 os         1 TC4      -0.465100
     24 O6          19.0100    55.6890    22.8180 o          1 TC4      -0.531000
     25 P1          23.6250    51.3170    22.5570 p5         1 TC4       1.140800
     26 H11         23.9170    49.8400    20.6930 hc         1 TC4       0.076700
     27 H12         25.2680    50.9780    20.8500 hc         1 TC4       0.076700
     28 H21         22.4680    51.6880    19.7690 hc         1 TC4       0.053700
     29 H22         23.8050    52.8280    19.9350 hc         1 TC4       0.053700
     30 H31         25.1510    51.4740    18.2940 hc         1 TC4       0.037200
     31 H32         23.8000    50.3540    18.1190 hc         1 TC4       0.037200
     32 H41         23.8240    51.9820    16.2390 hc         1 TC4       0.033033
     33 H42         22.3640    52.2290    17.2230 hc         1 TC4       0.033033
     34 H43         23.7440    53.3420    17.3790 hc         1 TC4       0.033033
     35 H51         21.4730    51.9620    24.1670 h1         1 TC4       0.059700
     36 H52         20.3870    50.6430    23.7050 h1         1 TC4       0.059700
     37 H6          19.8900    51.8360    21.5510 h1         1 TC4       0.100700
     38 H81         22.2680    54.9890    18.6230 h1         1 TC4       0.057700
     39 H82         23.2820    56.1210    19.5330 h1         1 TC4       0.057700
     40 H91         21.5620    57.2830    18.1600 hc         1 TC4       0.049200
     41 H92         20.2700    56.4360    19.0030 hc         1 TC4       0.049200
     42 H101        20.8330    57.5810    21.1260 hc         1 TC4       0.042200
     43 H102        22.2690    58.3060    20.4040 hc         1 TC4       0.042200
     44 H111        20.3630    59.9380    20.5560 hc         1 TC4       0.032367
     45 H112        20.8690    59.6780    18.8730 hc         1 TC4       0.032367
     46 H113        19.3910    58.9060    19.4830 hc         1 TC4       0.032367
     47 H121        18.4260    52.0370    23.5850 h1         1 TC4       0.075700
     48 H122        19.2600    53.5170    24.0640 h1         1 TC4       0.075700
     49 H141        16.9980    56.8130    19.6620 h1         1 TC4       0.056200
     50 H142        18.4150    57.2050    20.6580 h1         1 TC4       0.056200
     51 H151        15.4860    57.3360    21.5700 hc         1 TC4       0.049700
     52 H152        16.8650    57.5940    22.6320 hc         1 TC4       0.049700
     53 H161        15.9650    59.7550    21.9630 hc         1 TC4       0.042700
     54 H162        17.5820    59.5700    21.2970 hc         1 TC4       0.042700
     55 H171        15.9830    60.5980    19.6510 hc         1 TC4       0.031700
     56 H172        16.6220    59.0630    19.0360 hc         1 TC4       0.031700
     57 H173        14.9750    59.1360    19.7090 hc         1 TC4       0.031700
     58 H1          22.4870    55.1960    21.5260 hn         1 TC4       0.340500
     59 H2          16.8930    54.7190    20.6930 hn         1 TC4       0.331500
     60 HP1         24.2720    50.3770    23.4000 hp         1 TC4      -0.109400
     61 C7          21.0170    54.0140    20.8060 c          1 TC4       0.637100
@<TRIPOS>BOND
     1     1     2 1   
     2     1    25 1   
     3     1    26 1   
     4     1    27 1   
     5     2     3 1   
     6     2    28 1   
     7     2    29 1   
     8     3     4 1   
     9     3    30 1   
    10     3    31 1   
    11     4    32 1   
    12     4    33 1   
    13     4    34 1   
    14     5     6 1   
    15     5    20 1   
    16     5    35 1   
    17     5    36 1   
    18     6    11 1   
    19     6    21 1   
    20     6    37 1   
    21     7     8 1   
    22     7    17 1   
    23     7    38 1   
    24     7    39 1   
    25     8     9 1   
    26     8    40 1   
    27     8    41 1   
    28     9    10 1   
    29     9    42 1   
    30     9    43 1   
    31    10    44 1   
    32    10    45 1   
    33    10    46 1   
    34    11    23 1   
    35    11    47 1   
    36    11    48 1   
    37    12    18 1   
    38    12    23 1   
    39    12    24 2   
    40    13    14 1   
    41    13    18 1   
    42    13    49 1   
    43    13    50 1   
    44    14    15 1   
    45    14    51 1   
    46    14    52 1   
    47    15    16 1   
    48    15    53 1   
    49    15    54 1   
    50    16    55 1   
    51    16    56 1   
    52    16    57 1   
    53    17    58 1   
    54    17    61 1   
    55    18    59 1   
    56    19    25 2   
    57    20    25 1   
    58    21    61 1   
    59    22    61 2   
    60    25    60 1   
@<TRIPOS>SUBSTRUCTURE
     1 TC4         1 TEMP              0 ****  ****    0 ROOT
