@<TRIPOS>MOLECULE
TC7
   13    13     1     0     0
SMALL
No Charge or Current Charge


@<TRIPOS>ATOM
      1 C1          15.0720    26.6600    28.8890 ca         1 TC7       0.161000
      2 C2          13.9670    27.5240    28.9820 ca         1 TC7      -0.196000
      3 C3          13.9510    28.7290    28.2590 ca         1 TC7       0.162100
      4 C4          15.0490    29.0690    27.4370 ca         1 TC7       0.080000
      5 C5          16.1530    28.2040    27.3440 ca         1 TC7      -0.054000
      6 C6          16.1690    27.0000    28.0680 ca         1 TC7       0.083000
      7 Cl1         15.0620    30.5740    26.5140 cl         1 TC7      -0.163000
      8 Cl3         17.5690    25.9350    27.9300 cl         1 TC7      -0.162000
      9 O1          12.8690    29.5610    28.3590 oh         1 TC7      -0.507100
     10 Cl5         15.0590    25.1570    29.8100 cl         1 TC7      -0.162000
     11 H5          16.9960    28.4670    26.7120 ha         1 TC7       0.148000
     12 H2          13.1300    27.2490    29.6190 ha         1 TC7       0.135000
     13 H1          12.2160    29.1570    28.9700 ho         1 TC7       0.475000
@<TRIPOS>BOND
     1     1     2 ar  
     2     1     6 ar  
     3     1    10 1   
     4     2     3 ar  
     5     2    12 1   
     6     3     4 ar  
     7     3     9 1   
     8     4     5 ar  
     9     4     7 1   
    10     5     6 ar  
    11     5    11 1   
    12     6     8 1   
    13     9    13 1   
@<TRIPOS>SUBSTRUCTURE
     1 TC7         1 TEMP              0 ****  ****    0 ROOT
