@<TRIPOS>MOLECULE
TC7
   13    13     1     0     0
SMALL
bcc


@<TRIPOS>ATOM
      1 C1          15.0820    26.6660    28.8780 ca         1 TC7       0.069400
      2 C2          13.9880    27.5110    28.9780 ca         1 TC7      -0.214000
      3 C3          13.9510    28.7060    28.2710 ca         1 TC7       0.162100
      4 C4          15.0400    29.0340    27.4610 ca         1 TC7      -0.011600
      5 C5          16.1320    28.1950    27.3610 ca         1 TC7      -0.072000
      6 C6          16.1600    27.0030    28.0710 ca         1 TC7      -0.008600
      7 CL1         15.0100    30.5140    26.5780 cl         1 TC7      -0.071400
      8 CL3         17.5290    25.9690    27.9380 cl         1 TC7      -0.070400
      9 O1          12.9270    29.5610    28.3280 oh         1 TC7      -0.468100
     10 CL5         15.0820    25.1960    29.7700 cl         1 TC7      -0.070400
     11 H5          16.9670    28.4660    26.7290 ha         1 TC7       0.166000
     12 H2          13.1560    27.2330    29.6140 ha         1 TC7       0.153000
     13 H1          12.2380    29.2320    28.9170 ho         1 TC7       0.436000
@<TRIPOS>BOND
     1     1     2 ar  
     2     1     6 ar  
     3     1    10 1   
     4     2     3 ar  
     5     2    12 1   
     6     3     4 ar  
     7     3     9 1   
     8     4     5 ar  
     9     4     7 1   
    10     5     6 ar  
    11     5    11 1   
    12     6     8 1   
    13     9    13 1   
@<TRIPOS>SUBSTRUCTURE
     1 TC7         1 TEMP              0 ****  ****    0 ROOT
