@<TRIPOS>MOLECULE
TC8
   31    33     1     0     0
SMALL
No Charge or Current Charge


@<TRIPOS>ATOM
      1 C1          -0.3080     3.9900    -0.0080 c3         1 TC8       0.033900
      2 S2           0.7860     2.4930     0.0110 ss         1 TC8      -0.234200
      3 C3          -0.3390     1.1240     0.0180 cc         1 TC8       0.538800
      4 N4          -1.6250     1.4760     0.0080 nd         1 TC8      -0.648100
      5 C5          -2.5250     0.4060     0.0140 ca         1 TC8       0.200400
      6 C6          -3.8980     0.7160     0.0050 ca         1 TC8      -0.108000
      7 C7          -4.8690    -0.2990     0.0090 ca         1 TC8      -0.072000
      8 C8          -4.4700    -1.6430     0.0230 ca         1 TC8      -0.135000
      9 C9          -3.1040    -1.9670     0.0330 ca         1 TC8      -0.037000
     10 C10         -2.1330    -0.9420     0.0280 ca         1 TC8      -0.198600
     11 C11         -0.6850    -1.2620     0.0380 c          1 TC8       0.589600
     12 O12         -0.2720    -2.4160     0.0500 o          1 TC8      -0.513000
     13 N13          0.1770    -0.1690     0.0320 n          1 TC8      -0.241500
     14 C14          1.6070    -0.3620     0.0400 ca         1 TC8      -0.080400
     15 C15          2.2870    -0.5800     1.2560 ca         1 TC8       0.232500
     16 F16          1.6270    -0.4590     2.4300 f          1 TC8      -0.155500
     17 C17          3.6530    -0.9040     1.2670 ca         1 TC8      -0.172000
     18 C18          4.3500    -1.0620     0.0570 ca         1 TC8      -0.042000
     19 C19          3.6660    -0.9130    -1.1610 ca         1 TC8      -0.172000
     20 C20          2.2990    -0.5890    -1.1660 ca         1 TC8       0.232500
     21 F21          1.6510    -0.4780    -2.3480 f          1 TC8      -0.155500
     22 H1           0.3110     4.8950    -0.0130 h1         1 TC8       0.075367
     23 H1A         -0.9370     3.9820    -0.9070 h1         1 TC8       0.075367
     24 H1B         -0.9460     3.9990     0.8840 h1         1 TC8       0.075367
     25 H6          -4.2120     1.7570    -0.0060 ha         1 TC8       0.131000
     26 H7          -5.9260    -0.0420     0.0020 ha         1 TC8       0.117000
     27 H8          -5.2180    -2.4340     0.0270 ha         1 TC8       0.120000
     28 H9          -2.8050    -3.0140     0.0440 ha         1 TC8       0.136000
     29 H17          4.1670    -1.0430     2.2150 ha         1 TC8       0.142000
     30 H18          5.4080    -1.3160     0.0630 ha         1 TC8       0.124000
     31 H19          4.1890    -1.0600    -2.1030 ha         1 TC8       0.142000
@<TRIPOS>BOND
     1     1     2 1   
     2     1    22 1   
     3     1    23 1   
     4     1    24 1   
     5     2     3 1   
     6     3     4 2   
     7     3    13 1   
     8     4     5 1   
     9     5     6 ar  
    10     5    10 ar  
    11     6     7 ar  
    12     6    25 1   
    13     7     8 ar  
    14     7    26 1   
    15     8     9 ar  
    16     8    27 1   
    17     9    10 ar  
    18     9    28 1   
    19    10    11 1   
    20    11    12 2   
    21    11    13 1   
    22    13    14 1   
    23    14    15 ar  
    24    14    20 ar  
    25    15    16 1   
    26    15    17 ar  
    27    17    18 ar  
    28    17    29 1   
    29    18    19 ar  
    30    18    30 1   
    31    19    20 ar  
    32    19    31 1   
    33    20    21 1   
@<TRIPOS>SUBSTRUCTURE
     1 TC8         1 TEMP              0 ****  ****    0 ROOT
