@<TRIPOS>MOLECULE
TC8
   31    33     1     0     0
SMALL
abcg2


@<TRIPOS>ATOM
      1 C1          -0.1350     3.8210    -0.0070 c3         1 TC8       0.033900
      2 S2           0.8840     2.3350     0.0160 ss         1 TC8      -0.234200
      3 C3          -0.3570     1.1010     0.0190 cc         1 TC8       0.538800
      4 N4          -1.5980     1.4040     0.0110 nd         1 TC8      -0.648100
      5 C5          -2.5210     0.3860     0.0150 ca         1 TC8       0.200400
      6 C6          -3.8830     0.7090     0.0060 ca         1 TC8      -0.108000
      7 C7          -4.8290    -0.2930     0.0100 ca         1 TC8      -0.072000
      8 C8          -4.4480    -1.6390     0.0230 ca         1 TC8      -0.135000
      9 C9          -3.1110    -1.9720     0.0320 ca         1 TC8      -0.037000
     10 C10         -2.1420    -0.9640     0.0280 ca         1 TC8      -0.198600
     11 C11         -0.7280    -1.3020     0.0370 c          1 TC8       0.589600
     12 O12         -0.2660    -2.4230     0.0470 o          1 TC8      -0.513000
     13 N13          0.1210    -0.1930     0.0330 n          1 TC8      -0.241500
     14 C14          1.5140    -0.4340     0.0410 ca         1 TC8      -0.080400
     15 C15          2.2110    -0.5560     1.2330 ca         1 TC8       0.232500
     16 F16          1.5240    -0.4330     2.3670 f          1 TC8      -0.155500
     17 C17          3.5700    -0.7860     1.2630 ca         1 TC8      -0.172000
     18 C18          4.2440    -0.9020     0.0550 ca         1 TC8      -0.042000
     19 C19          3.5810    -0.7960    -1.1600 ca         1 TC8      -0.172000
     20 C20          2.2220    -0.5660    -1.1450 ca         1 TC8       0.232500
     21 F21          1.5450    -0.4530    -2.2850 f          1 TC8      -0.155500
     22 H1           0.5650     4.6530    -0.0090 h1         1 TC8       0.075367
     23 H1A         -0.7470     3.8590    -0.9040 h1         1 TC8       0.075367
     24 H1B         -0.7630     3.8750     0.8780 h1         1 TC8       0.075367
     25 H6          -4.1730     1.7520    -0.0040 ha         1 TC8       0.131000
     26 H7          -5.8800    -0.0350     0.0030 ha         1 TC8       0.117000
     27 H8          -5.2010    -2.4140     0.0260 ha         1 TC8       0.120000
     28 H9          -2.8040    -3.0090     0.0420 ha         1 TC8       0.136000
     29 H17          4.0900    -0.8730     2.2070 ha         1 TC8       0.142000
     30 H18          5.3100    -1.0790     0.0610 ha         1 TC8       0.124000
     31 H19          4.1110    -0.8890    -2.0980 ha         1 TC8       0.142000
@<TRIPOS>BOND
     1     1     2 1   
     2     1    22 1   
     3     1    23 1   
     4     1    24 1   
     5     2     3 1   
     6     3     4 2   
     7     3    13 1   
     8     4     5 1   
     9     5     6 ar  
    10     5    10 ar  
    11     6     7 ar  
    12     6    25 1   
    13     7     8 ar  
    14     7    26 1   
    15     8     9 ar  
    16     8    27 1   
    17     9    10 ar  
    18     9    28 1   
    19    10    11 1   
    20    11    12 2   
    21    11    13 1   
    22    13    14 1   
    23    14    15 ar  
    24    14    20 ar  
    25    15    16 1   
    26    15    17 ar  
    27    17    18 ar  
    28    17    29 1   
    29    18    19 ar  
    30    18    30 1   
    31    19    20 ar  
    32    19    31 1   
    33    20    21 1   
@<TRIPOS>SUBSTRUCTURE
     1 TC8         1 TEMP              0 ****  ****    0 ROOT
