@<TRIPOS>MOLECULE
TC9
   87    93     1     0     0
SMALL
bcc


@<TRIPOS>ATOM
      1 N1          -5.5190     3.1410    -0.6220 nx         1 TC9      -0.684400
      2 C2          -5.4570     3.1640     0.8710 c6         1 TC9       0.128800
      3 C3          -5.4120     1.7650     1.4480 c6         1 TC9      -0.056100
      4 C4          -4.5460     0.8180     0.6660 ca         1 TC9      -0.041300
      5 C5          -4.1100     1.1350    -0.6100 ca         1 TC9      -0.166300
      6 C6          -4.2970     2.4980    -1.2120 c6         1 TC9       0.206800
      7 C7          -4.2410    -0.4310     1.2120 ca         1 TC9      -0.201000
      8 C8          -3.5320    -1.3750     0.4870 ca         1 TC9       0.162100
      9 C9          -3.1510    -1.0630    -0.8290 ca         1 TC9       0.090100
     10 C10         -3.4180     0.1790    -1.3530 ca         1 TC9      -0.074000
     11 O11         -2.6350    -2.0310    -1.6390 os         1 TC9      -0.221200
     12 C12         -1.4250    -2.6090    -1.3760 ca         1 TC9       0.092100
     13 C13         -1.3700    -4.0000    -1.4880 ca         1 TC9       0.172100
     14 C14         -0.1300    -4.6140    -1.4080 ca         1 TC9      -0.206000
     15 C15          1.0220    -3.8660    -1.2150 ca         1 TC9      -0.104000
     16 C16          0.9760    -2.4850    -1.0530 ca         1 TC9      -0.134300
     17 C17         -0.2800    -1.8740    -1.1330 ca         1 TC9      -0.118000
     18 C18          2.2040    -1.6070    -0.9580 c3         1 TC9      -0.037100
     19 C19          2.9700    -1.4870     0.3870 c6         1 TC9       0.235800
     20 N20          3.9780    -2.6280     0.6120 n4         1 TC9      -0.614800
     21 C21          5.1410    -2.1560     1.4430 c6         1 TC9       0.132800
     22 C22          5.9150    -1.0770     0.7310 c6         1 TC9      -0.053100
     23 C23          5.0000     0.0840     0.4810 ca         1 TC9      -0.060300
     24 C24          3.6300    -0.1210     0.4790 ca         1 TC9      -0.155300
     25 C25          5.5210     1.3750     0.4200 ca         1 TC9      -0.173000
     26 C26          4.6800     2.4690     0.4210 ca         1 TC9       0.115100
     27 C27          3.2950     2.2880     0.5710 ca         1 TC9       0.090100
     28 C28          2.7890     0.9980     0.5920 ca         1 TC9       0.122100
     29 O29          1.4810     0.7500     0.8830 os         1 TC9      -0.264200
     30 C30          0.4430     1.4760     0.3640 ca         1 TC9       0.145100
     31 C31          0.3650     1.8420    -0.9690 ca         1 TC9      -0.146500
     32 C32         -0.7750     2.4950    -1.4220 ca         1 TC9      -0.085000
     33 C33         -1.8250     2.7990    -0.5660 ca         1 TC9      -0.113300
     34 C34         -1.7060     2.4400     0.7750 ca         1 TC9      -0.085000
     35 C35         -0.5890     1.7740     1.2410 ca         1 TC9      -0.146500
     36 C36         -3.0760     3.4580    -1.0710 c3         1 TC9      -0.035100
     37 O37         -3.2040    -2.5990     0.9180 os         1 TC9      -0.289900
     38 C38         -3.5740    -2.9740     2.2310 c3         1 TC9       0.114700
     39 O39         -2.5180    -4.6610    -1.7050 oh         1 TC9      -0.453100
     40 O40          5.0650     3.7570     0.3710 os         1 TC9      -0.326900
     41 C41          6.4490     4.0520     0.3490 c3         1 TC9       0.123700
     42 O42          2.4630     3.3310     0.7340 oh         1 TC9      -0.480100
     43 C43         -6.7740     2.5340    -1.1310 c3         1 TC9       0.103100
     44 C44          4.5400    -3.2040    -0.6440 c3         1 TC9       0.100100
     45 C45          3.3050    -3.7160     1.3820 c3         1 TC9       0.100100
     46 H21C        -4.5770     3.7410     1.1470 hx         1 TC9       0.097700
     47 H22C        -6.3280     3.7120     1.2230 hx         1 TC9       0.097700
     48 H6          -4.5180     2.3910    -2.2740 hx         1 TC9       0.099700
     49 H431        -7.6170     3.0260    -0.6560 hx         1 TC9       0.102033
     50 H432        -6.8160     2.6820    -2.2060 hx         1 TC9       0.102033
     51 H433        -6.7900     1.4710    -0.9100 hx         1 TC9       0.102033
     52 H31C        -5.0600     1.8510     2.4780 hc         1 TC9       0.091700
     53 H32C        -6.4220     1.3520     1.5150 hc         1 TC9       0.091700
     54 H7          -4.5920    -0.6530     2.2120 ha         1 TC9       0.156000
     55 H10         -3.1060     0.3970    -2.3680 ha         1 TC9       0.159000
     56 H361        -2.8920     3.9070    -2.0470 hc         1 TC9       0.068200
     57 H362        -3.3350     4.2880    -0.4080 hc         1 TC9       0.068200
     58 H17         -0.3610    -0.7950    -1.0620 ha         1 TC9       0.145000
     59 H14         -0.0530    -5.6900    -1.5170 ha         1 TC9       0.153000
     60 H39         -2.3480    -5.6080    -1.7670 ho         1 TC9       0.440000
     61 H15          1.9600    -4.4040    -1.2280 ha         1 TC9       0.118000
     62 H181         2.9030    -1.8510    -1.7580 hc         1 TC9       0.075700
     63 H182         1.8850    -0.5990    -1.2100 hc         1 TC9       0.075700
     64 H19          2.2610    -1.5990     1.2090 hx         1 TC9       0.108700
     65 H211         4.7370    -1.7840     2.3840 hx         1 TC9       0.097200
     66 H212         5.7550    -3.0300     1.6540 hx         1 TC9       0.097200
     67 H441         4.9160    -2.4220    -1.2950 hx         1 TC9       0.095200
     68 H442         5.3510    -3.8750    -0.3760 hx         1 TC9       0.095200
     69 H443         3.7890    -3.7710    -1.1780 hx         1 TC9       0.095200
     70 H451         2.3850    -4.0080     0.8880 hx         1 TC9       0.095200
     71 H452         3.9740    -4.5690     1.4460 hx         1 TC9       0.095200
     72 H453         3.0740    -3.3490     2.3780 hx         1 TC9       0.095200
     73 H221         6.7210    -0.7650     1.3970 hc         1 TC9       0.091700
     74 H222         6.4060    -1.4480    -0.1710 hc         1 TC9       0.091700
     75 H25          6.5960     1.5000     0.4110 ha         1 TC9       0.161000
     76 H42          2.9680     4.1550     0.7340 ho         1 TC9       0.464000
     77 H31          1.1730     1.6270    -1.6580 ha         1 TC9       0.154500
     78 H35         -0.5110     1.4930     2.2830 ha         1 TC9       0.154500
     79 H32         -0.8420     2.7640    -2.4700 ha         1 TC9       0.135500
     80 H34         -2.4910     2.6810     1.4820 ha         1 TC9       0.135500
     81 H381        -3.1270    -2.3170     2.9810 h1         1 TC9       0.055700
     82 H382        -4.6590    -2.9760     2.3620 h1         1 TC9       0.055700
     83 H383        -3.1990    -3.9830     2.3790 h1         1 TC9       0.055700
     84 H411         6.9540     3.6790     1.2440 h1         1 TC9       0.060033
     85 H412         6.9360     3.6350    -0.5360 h1         1 TC9       0.060033
     86 H413         6.5340     5.1350     0.3210 h1         1 TC9       0.060033
     87 H1          -5.5240     4.1140    -0.9300 hn         1 TC9       0.442800
@<TRIPOS>BOND
     1     1     2 1   
     2     1     6 1   
     3     1    43 1   
     4     1    87 1   
     5     2     3 1   
     6     2    46 1   
     7     2    47 1   
     8     3     4 1   
     9     3    52 1   
    10     3    53 1   
    11     4     5 ar  
    12     4     7 ar  
    13     5     6 1   
    14     5    10 ar  
    15     6    36 1   
    16     6    48 1   
    17     7     8 ar  
    18     7    54 1   
    19     8     9 ar  
    20     8    37 1   
    21     9    10 ar  
    22     9    11 1   
    23    10    55 1   
    24    11    12 1   
    25    12    13 ar  
    26    12    17 ar  
    27    13    14 ar  
    28    13    39 1   
    29    14    15 ar  
    30    14    59 1   
    31    15    16 ar  
    32    15    61 1   
    33    16    17 ar  
    34    16    18 1   
    35    17    58 1   
    36    18    19 1   
    37    18    62 1   
    38    18    63 1   
    39    19    20 1   
    40    19    24 1   
    41    19    64 1   
    42    20    21 1   
    43    20    44 1   
    44    20    45 1   
    45    21    22 1   
    46    21    65 1   
    47    21    66 1   
    48    22    23 1   
    49    22    73 1   
    50    22    74 1   
    51    23    24 ar  
    52    23    25 ar  
    53    24    28 ar  
    54    25    26 ar  
    55    25    75 1   
    56    26    27 ar  
    57    26    40 1   
    58    27    28 ar  
    59    27    42 1   
    60    28    29 1   
    61    29    30 1   
    62    30    31 ar  
    63    30    35 ar  
    64    31    32 ar  
    65    31    77 1   
    66    32    33 ar  
    67    32    79 1   
    68    33    34 ar  
    69    33    36 1   
    70    34    35 ar  
    71    34    80 1   
    72    35    78 1   
    73    36    56 1   
    74    36    57 1   
    75    37    38 1   
    76    38    81 1   
    77    38    82 1   
    78    38    83 1   
    79    39    60 1   
    80    40    41 1   
    81    41    84 1   
    82    41    85 1   
    83    41    86 1   
    84    42    76 1   
    85    43    49 1   
    86    43    50 1   
    87    43    51 1   
    88    44    67 1   
    89    44    68 1   
    90    44    69 1   
    91    45    70 1   
    92    45    71 1   
    93    45    72 1   
@<TRIPOS>SUBSTRUCTURE
     1 TC9         1 TEMP              0 ****  ****    0 ROOT
