@<TRIPOS>MOLECULE
TC9
   87    93     1     0     0
SMALL
No Charge or Current Charge


@<TRIPOS>ATOM
      1 N1          -5.5910     3.2470    -0.7190 nx         1 TC9      -0.655000
      2 C2          -5.5570     3.2720     0.8180 c6         1 TC9       0.100600
      3 C3          -5.5340     1.8420     1.3990 c6         1 TC9      -0.056100
      4 C4          -4.6740     0.8520     0.6020 ca         1 TC9      -0.041300
      5 C5          -4.1610     1.1800    -0.6740 ca         1 TC9      -0.166300
      6 C6          -4.3270     2.5860    -1.2690 c6         1 TC9       0.178600
      7 C7          -4.4390    -0.4260     1.1420 ca         1 TC9      -0.183000
      8 C8          -3.7170    -1.3970     0.4120 ca         1 TC9       0.162100
      9 C9          -3.2460    -1.0770    -0.8820 ca         1 TC9       0.090100
     10 C10         -3.4680     0.2030    -1.4150 ca         1 TC9      -0.056000
     11 O11         -2.6430    -2.0250    -1.6800 os         1 TC9      -0.221200
     12 C12         -1.4530    -2.6340    -1.3450 ca         1 TC9       0.092100
     13 C13         -1.3900    -4.0390    -1.2150 ca         1 TC9       0.172100
     14 C14         -0.1550    -4.6550    -0.9660 ca         1 TC9      -0.188000
     15 C15          1.0170    -3.8840    -0.8820 ca         1 TC9      -0.086000
     16 C16          0.9740    -2.4820    -1.0190 ca         1 TC9      -0.134300
     17 C17         -0.2790    -1.8640    -1.2420 ca         1 TC9      -0.100000
     18 C18          2.2540    -1.6300    -1.0540 c3         1 TC9      -0.037100
     19 C19          3.1090    -1.5490     0.2690 c6         1 TC9       0.207600
     20 N20          4.1640    -2.7250     0.4700 n4         1 TC9      -0.502000
     21 C21          5.4700    -2.1800     1.0950 c6         1 TC9       0.104600
     22 C22          6.0580    -1.0040     0.3030 c6         1 TC9      -0.053100
     23 C23          5.0740     0.1480     0.3460 ca         1 TC9      -0.060300
     24 C24          3.6880    -0.1130     0.4280 ca         1 TC9      -0.155300
     25 C25          5.5630     1.4640     0.4200 ca         1 TC9      -0.155000
     26 C26          4.6810     2.5400     0.6340 ca         1 TC9       0.115100
     27 C27          3.3060     2.2900     0.8040 ca         1 TC9       0.090100
     28 C28          2.8080     0.9640     0.6960 ca         1 TC9       0.122100
     29 O29          1.4820     0.6710     0.9490 os         1 TC9      -0.264200
     30 C30          0.4280     1.4000     0.4520 ca         1 TC9       0.145100
     31 C31          0.4020     1.8360    -0.8870 ca         1 TC9      -0.128500
     32 C32         -0.7230     2.5190    -1.3810 ca         1 TC9      -0.067000
     33 C33         -1.8170     2.7880    -0.5330 ca         1 TC9      -0.113300
     34 C34         -1.7630     2.3840     0.8160 ca         1 TC9      -0.067000
     35 C35         -0.6550     1.6730     1.2990 ca         1 TC9      -0.128500
     36 C36         -3.0640     3.4940    -1.0660 c3         1 TC9      -0.035100
     37 O37         -3.4940    -2.6680     0.9140 os         1 TC9      -0.313100
     38 C38         -3.9280    -3.0720     2.2250 c3         1 TC9       0.137900
     39 O39         -2.5120    -4.8110    -1.3560 oh         1 TC9      -0.492100
     40 O40          5.1200     3.8500     0.7400 os         1 TC9      -0.350100
     41 C41          6.5060     4.2140     0.5900 c3         1 TC9       0.146900
     42 O42          2.4910     3.3530     1.1110 oh         1 TC9      -0.519100
     43 C43         -6.8770     2.6260    -1.2860 c3         1 TC9       0.074900
     44 C44          4.5630    -3.4490    -0.8360 c3         1 TC9       0.071900
     45 C45          3.5910    -3.7540     1.4570 c3         1 TC9       0.071900
     46 H21C        -4.6570     3.8170     1.1210 hx         1 TC9       0.097700
     47 H22C        -6.4250     3.8330     1.1810 hx         1 TC9       0.097700
     48 H6          -4.4700     2.4930    -2.3520 hx         1 TC9       0.099700
     49 H431        -7.7490     3.1490    -0.8880 hx         1 TC9       0.102033
     50 H432        -6.8750     2.6990    -2.3760 hx         1 TC9       0.102033
     51 H433        -6.9260     1.5730    -0.9990 hx         1 TC9       0.102033
     52 H31C        -5.1970     1.8830     2.4430 hc         1 TC9       0.091700
     53 H32C        -6.5620     1.4610     1.4290 hc         1 TC9       0.091700
     54 H7          -4.8410    -0.6530     2.1240 ha         1 TC9       0.138000
     55 H10         -3.0940     0.4360    -2.4090 ha         1 TC9       0.141000
     56 H361        -2.8350     3.9810    -2.0210 hc         1 TC9       0.068200
     57 H362        -3.2980     4.3240    -0.3900 hc         1 TC9       0.068200
     58 H17         -0.3440    -0.7910    -1.3870 ha         1 TC9       0.127000
     59 H14         -0.0880    -5.7360    -0.8700 ha         1 TC9       0.135000
     60 H39         -2.2610    -5.7500    -1.2330 ho         1 TC9       0.479000
     61 H15          1.9560    -4.4040    -0.7440 ha         1 TC9       0.100000
     62 H181         2.8690    -1.9200    -1.9110 hc         1 TC9       0.075700
     63 H182         1.9580    -0.6140    -1.3280 hc         1 TC9       0.075700
     64 H19          2.3920    -1.6790     1.0860 hx         1 TC9       0.108700
     65 H211         5.2270    -1.8660     2.1150 hx         1 TC9       0.097200
     66 H212         6.1760    -3.0140     1.1550 hx         1 TC9       0.097200
     67 H441         4.9950    -2.7260    -1.5300 hx         1 TC9       0.095200
     68 H442         5.3000    -4.2220    -0.6080 hx         1 TC9       0.095200
     69 H443         3.6910    -3.9060    -1.3000 hx         1 TC9       0.095200
     70 H451         2.6420    -4.1400     1.0860 hx         1 TC9       0.095200
     71 H452         4.3010    -4.5750     1.5770 hx         1 TC9       0.095200
     72 H453         3.4270    -3.2700     2.4220 hx         1 TC9       0.095200
     73 H221         7.0140    -0.7120     0.7580 hc         1 TC9       0.091700
     74 H222         6.2790    -1.2860    -0.7340 hc         1 TC9       0.091700
     75 H25          6.6340     1.6290     0.3450 ha         1 TC9       0.143000
     76 H42          3.0640     4.1510     1.1410 ho         1 TC9       0.503000
     77 H31          1.2400     1.6310    -1.5470 ha         1 TC9       0.136500
     78 H35         -0.6320     1.3360     2.3310 ha         1 TC9       0.136500
     79 H32         -0.7460     2.8320    -2.4220 ha         1 TC9       0.117500
     80 H34         -2.5940     2.5940     1.4840 ha         1 TC9       0.117500
     81 H381        -3.4720    -2.4410     2.9990 h1         1 TC9       0.055700
     82 H382        -5.0200    -3.0080     2.3130 h1         1 TC9       0.055700
     83 H383        -3.6330    -4.1110     2.4180 h1         1 TC9       0.055700
     84 H411         7.1240     3.7280     1.3550 h1         1 TC9       0.060033
     85 H412         6.8810     3.9280    -0.4010 h1         1 TC9       0.060033
     86 H413         6.6280     5.2990     0.6970 h1         1 TC9       0.060033
     87 H1          -5.5810     4.2410    -1.0470 hn         1 TC9       0.498000
@<TRIPOS>BOND
     1     1     2 1   
     2     1     6 1   
     3     1    43 1   
     4     1    87 1   
     5     2     3 1   
     6     2    46 1   
     7     2    47 1   
     8     3     4 1   
     9     3    52 1   
    10     3    53 1   
    11     4     5 ar  
    12     4     7 ar  
    13     5     6 1   
    14     5    10 ar  
    15     6    36 1   
    16     6    48 1   
    17     7     8 ar  
    18     7    54 1   
    19     8     9 ar  
    20     8    37 1   
    21     9    10 ar  
    22     9    11 1   
    23    10    55 1   
    24    11    12 1   
    25    12    13 ar  
    26    12    17 ar  
    27    13    14 ar  
    28    13    39 1   
    29    14    15 ar  
    30    14    59 1   
    31    15    16 ar  
    32    15    61 1   
    33    16    17 ar  
    34    16    18 1   
    35    17    58 1   
    36    18    19 1   
    37    18    62 1   
    38    18    63 1   
    39    19    20 1   
    40    19    24 1   
    41    19    64 1   
    42    20    21 1   
    43    20    44 1   
    44    20    45 1   
    45    21    22 1   
    46    21    65 1   
    47    21    66 1   
    48    22    23 1   
    49    22    73 1   
    50    22    74 1   
    51    23    24 ar  
    52    23    25 ar  
    53    24    28 ar  
    54    25    26 ar  
    55    25    75 1   
    56    26    27 ar  
    57    26    40 1   
    58    27    28 ar  
    59    27    42 1   
    60    28    29 1   
    61    29    30 1   
    62    30    31 ar  
    63    30    35 ar  
    64    31    32 ar  
    65    31    77 1   
    66    32    33 ar  
    67    32    79 1   
    68    33    34 ar  
    69    33    36 1   
    70    34    35 ar  
    71    34    80 1   
    72    35    78 1   
    73    36    56 1   
    74    36    57 1   
    75    37    38 1   
    76    38    81 1   
    77    38    82 1   
    78    38    83 1   
    79    39    60 1   
    80    40    41 1   
    81    41    84 1   
    82    41    85 1   
    83    41    86 1   
    84    42    76 1   
    85    43    49 1   
    86    43    50 1   
    87    43    51 1   
    88    44    67 1   
    89    44    68 1   
    90    44    69 1   
    91    45    70 1   
    92    45    71 1   
    93    45    72 1   
@<TRIPOS>SUBSTRUCTURE
     1 TC9         1 TEMP              0 ****  ****    0 ROOT
