@<TRIPOS>MOLECULE
TCA
   18    18     1     0     0
SMALL
No Charge or Current Charge


@<TRIPOS>ATOM
      1 C1          -0.0640     0.0130     3.0400 c          1 TCA       0.695200
      2 O           -1.2530     0.0270     3.3200 o          1 TCA      -0.724000
      3 OXT          0.8230     0.0050     3.8780 o          1 TCA      -0.724000
      4 C2           0.3430     0.0040     1.6000 ce         1 TCA      -0.214200
      5 C3          -0.5030     0.0110     0.5220 cf         1 TCA      -0.240200
      6 C31         -0.1910     0.0030    -0.9220 ca         1 TCA       0.001200
      7 C32         -1.2460     0.0130    -1.8570 ca         1 TCA      -0.123000
      8 C33         -0.9800     0.0060    -3.2370 ca         1 TCA      -0.116500
      9 C34          0.3460    -0.0110    -3.6970 ca         1 TCA      -0.148000
     10 C35          1.4040    -0.0210    -2.7760 ca         1 TCA      -0.116500
     11 C36          1.1380    -0.0140    -1.3950 ca         1 TCA      -0.123000
     12 H2           1.4170    -0.0090     1.4390 ha         1 TCA       0.143000
     13 H3          -1.5740     0.0240     0.7390 ha         1 TCA       0.190000
     14 H32         -2.2790     0.0260    -1.5150 ha         1 TCA       0.112500
     15 H33         -1.8030     0.0130    -3.9490 ha         1 TCA       0.093000
     16 H34          0.5520    -0.0160    -4.7650 ha         1 TCA       0.091000
     17 H35          2.4330    -0.0340    -3.1300 ha         1 TCA       0.093000
     18 H36          1.9740    -0.0210    -0.7020 ha         1 TCA       0.112500
@<TRIPOS>BOND
     1     1     2 1   
     2     1     3 1   
     3     1     4 1   
     4     4     5 2   
     5     4    12 1   
     6     5     6 1   
     7     5    13 1   
     8     6     7 ar  
     9     6    11 ar  
    10     7     8 ar  
    11     7    14 1   
    12     8     9 ar  
    13     8    15 1   
    14     9    10 ar  
    15     9    16 1   
    16    10    11 ar  
    17    10    17 1   
    18    11    18 1   
@<TRIPOS>SUBSTRUCTURE
     1 TCA         1 TEMP              0 ****  ****    0 ROOT
