@<TRIPOS>MOLECULE
TCA
   18    18     1     0     0
SMALL
bcc


@<TRIPOS>ATOM
      1 C1          -0.0870     0.0130     2.9910 c          1 TCA       0.905800
      2 O           -1.3120     0.0240     3.2270 o          1 TCA      -0.829300
      3 OXT          0.8350     0.0090     3.8340 o          1 TCA      -0.829300
      4 C2           0.3550     0.0040     1.5460 ce         1 TCA      -0.164200
      5 C3          -0.5020     0.0100     0.5230 cf         1 TCA      -0.190200
      6 C31         -0.1760     0.0030    -0.9050 ca         1 TCA       0.001200
      7 C32         -1.2200     0.0130    -1.8340 ca         1 TCA      -0.141000
      8 C33         -0.9680     0.0070    -3.1990 ca         1 TCA      -0.134500
      9 C34          0.3390    -0.0110    -3.6640 ca         1 TCA      -0.166000
     10 C35          1.3900    -0.0210    -2.7520 ca         1 TCA      -0.134500
     11 C36          1.1360    -0.0140    -1.3910 ca         1 TCA      -0.141000
     12 H2           1.4270    -0.0080     1.3710 ha         1 TCA       0.093000
     13 H3          -1.5630     0.0220     0.7560 ha         1 TCA       0.140000
     14 H32         -2.2450     0.0260    -1.4800 ha         1 TCA       0.130500
     15 H33         -1.7940     0.0150    -3.8980 ha         1 TCA       0.111000
     16 H34          0.5390    -0.0160    -4.7280 ha         1 TCA       0.109000
     17 H35          2.4130    -0.0350    -3.1060 ha         1 TCA       0.111000
     18 H36          1.9690    -0.0220    -0.6990 ha         1 TCA       0.130500
@<TRIPOS>BOND
     1     1     2 1   
     2     1     3 1   
     3     1     4 1   
     4     4     5 2   
     5     4    12 1   
     6     5     6 1   
     7     5    13 1   
     8     6     7 ar  
     9     6    11 ar  
    10     7     8 ar  
    11     7    14 1   
    12     8     9 ar  
    13     8    15 1   
    14     9    10 ar  
    15     9    16 1   
    16    10    11 ar  
    17    10    17 1   
    18    11    18 1   
@<TRIPOS>SUBSTRUCTURE
     1 TCA         1 TEMP              0 ****  ****    0 ROOT
