@<TRIPOS>MOLECULE
TCC
   25    26     1     0     0
SMALL
No Charge or Current Charge


@<TRIPOS>ATOM
      1 C12         -0.9860    -1.5000    -1.8580 ca         1 TCC      -0.062000
      2 C11         -0.1010    -1.1830    -2.9010 ca         1 TCC       0.083000
      3 Cl2         -0.2860    -1.9490    -4.4730 cl         1 TCC      -0.196000
      4 C10          0.9260    -0.2490    -2.6930 ca         1 TCC      -0.058000
      5 C9           1.0740     0.3660    -1.4370 ca         1 TCC       0.054000
      6 Cl1          2.3750     1.5440    -1.2140 cl         1 TCC      -0.203000
      7 C8           0.1940     0.0430    -0.3740 ca         1 TCC       0.311000
      8 N1           0.3360     0.6610     0.8810 nu         1 TCC      -0.978000
      9 C4          -0.3750     0.5410     2.0940 ca         1 TCC       0.130000
     10 C5          -0.9960     1.6730     2.6510 ca         1 TCC      -0.078000
     11 C6          -1.7100     1.5700     3.8590 ca         1 TCC      -0.147000
     12 C1          -1.7980     0.3350     4.5270 ca         1 TCC      -0.066000
     13 C2          -1.1620    -0.7980     3.9900 ca         1 TCC      -0.151000
     14 C3          -0.4510    -0.6930     2.7850 ca         1 TCC       0.166100
     15 O1           0.2160    -1.7710     2.2870 oh         1 TCC      -0.527100
     16 C7          -0.8390    -0.8860    -0.6000 ca         1 TCC      -0.153000
     17 H12C        -1.7860    -2.2170    -2.0250 ha         1 TCC       0.133000
     18 H10C         1.6060    -0.0000    -3.5030 ha         1 TCC       0.143000
     19 HN1          0.9120     1.5070     0.8230 hn         1 TCC       0.489000
     20 HC5         -0.9370     2.6310     2.1400 ha         1 TCC       0.119000
     21 HC6         -2.1950     2.4490     4.2790 ha         1 TCC       0.121000
     22 HC1         -2.3500     0.2590     5.4620 ha         1 TCC       0.118000
     23 HC2         -1.2110    -1.7500     4.5120 ha         1 TCC       0.133000
     24 HO1          0.6820    -1.4140     1.4970 ho         1 TCC       0.486000
     25 HC7         -1.5410    -1.1290     0.1930 ha         1 TCC       0.134000
@<TRIPOS>BOND
     1     1     2 ar  
     2     1    16 ar  
     3     1    17 1   
     4     2     3 1   
     5     2     4 ar  
     6     4     5 ar  
     7     4    18 1   
     8     5     6 1   
     9     5     7 ar  
    10     7     8 1   
    11     7    16 ar  
    12     8     9 1   
    13     8    19 1   
    14     9    10 ar  
    15     9    14 ar  
    16    10    11 ar  
    17    10    20 1   
    18    11    12 ar  
    19    11    21 1   
    20    12    13 ar  
    21    12    22 1   
    22    13    14 ar  
    23    13    23 1   
    24    14    15 1   
    25    15    24 1   
    26    16    25 1   
@<TRIPOS>SUBSTRUCTURE
     1 TCC         1 TEMP              0 ****  ****    0 ROOT
