@<TRIPOS>MOLECULE
TCC
   25    26     1     0     0
SMALL
bcc


@<TRIPOS>ATOM
      1 C12         -1.2340    -1.1330    -1.7460 ca         1 TCC      -0.080000
      2 C11         -0.4340    -0.8220    -2.8330 ca         1 TCC      -0.008600
      3 CL2         -0.9140    -1.2990    -4.4290 cl         1 TCC      -0.104400
      4 C10          0.7500    -0.1290    -2.6560 ca         1 TCC      -0.076000
      5 C9           1.1240     0.2500    -1.3790 ca         1 TCC      -0.037600
      6 CL1          2.6120     1.1170    -1.1740 cl         1 TCC      -0.111400
      7 C8           0.3410    -0.0410    -0.2540 ca         1 TCC       0.172600
      8 N1           0.7520     0.3180     1.0160 nu         1 TCC      -0.646000
      9 C4          -0.1790     0.3520     2.0880 ca         1 TCC      -0.008400
     10 C5          -1.1260     1.3600     2.2210 ca         1 TCC      -0.096000
     11 C6          -2.0130     1.3570     3.2860 ca         1 TCC      -0.165000
     12 C1          -1.9490     0.3280     4.2200 ca         1 TCC      -0.084000
     13 C2          -1.0100    -0.6830     4.1010 ca         1 TCC      -0.169000
     14 C3          -0.1170    -0.6760     3.0320 ca         1 TCC       0.166100
     15 O1           0.7910    -1.6590     2.9290 oh         1 TCC      -0.488100
     16 C7          -0.8470    -0.7430    -0.4760 ca         1 TCC      -0.171000
     17 H12C        -2.1590    -1.6770    -1.8780 ha         1 TCC       0.151000
     18 H10C         1.3810     0.1190    -3.4990 ha         1 TCC       0.161000
     19 HN1          1.4620     1.0350     1.0510 hn         1 TCC       0.433800
     20 HC5         -1.1630     2.1490     1.4790 ha         1 TCC       0.137000
     21 HC6         -2.7460     2.1450     3.3870 ha         1 TCC       0.139000
     22 HC1         -2.6370     0.3130     5.0560 ha         1 TCC       0.136000
     23 HC2         -0.9600    -1.4800     4.8330 ha         1 TCC       0.151000
     24 HO1          1.3580    -1.4710     2.1660 ho         1 TCC       0.447000
     25 HC7         -1.4870    -0.9900     0.3610 ha         1 TCC       0.152000
@<TRIPOS>BOND
     1     1     2 ar  
     2     1    16 ar  
     3     1    17 1   
     4     2     3 1   
     5     2     4 ar  
     6     4     5 ar  
     7     4    18 1   
     8     5     6 1   
     9     5     7 ar  
    10     7     8 1   
    11     7    16 ar  
    12     8     9 1   
    13     8    19 1   
    14     9    10 ar  
    15     9    14 ar  
    16    10    11 ar  
    17    10    20 1   
    18    11    12 ar  
    19    11    21 1   
    20    12    13 ar  
    21    12    22 1   
    22    13    14 ar  
    23    13    23 1   
    24    14    15 1   
    25    15    24 1   
    26    16    25 1   
@<TRIPOS>SUBSTRUCTURE
     1 TCC         1 TEMP              0 ****  ****    0 ROOT
