@<TRIPOS>MOLECULE
TCD
   32    34     1     0     0
SMALL
bcc


@<TRIPOS>ATOM
      1 C1           1.6880    -0.0230     1.3610 ca         1 TCD       0.109600
      2 O21          1.7520    -0.0110     2.7390 os         1 TCD      -0.351400
      3 C2           1.7040    -1.2340     0.6910 ca         1 TCD      -0.112000
      4 C3           1.7010    -1.2440    -0.6960 ca         1 TCD      -0.112000
      5 C4           1.6820    -0.0430    -1.3830 ca         1 TCD       0.109600
      6 O31          1.7420    -0.0550    -2.7620 os         1 TCD      -0.351400
      7 C5           1.6690     1.1690    -0.7130 ca         1 TCD      -0.112000
      8 C6           1.6710     1.1790     0.6730 ca         1 TCD      -0.112000
      9 C22          0.6060    -0.0040     3.4330 ca         1 TCD       0.660600
     10 N23         -0.5440    -0.0300     2.8100 nb         1 TCD      -0.726000
     11 C24         -1.6730    -0.0230     3.5090 ca         1 TCD       0.461200
     12 C25         -1.6730     0.0110     4.8890 ca         1 TCD      -0.130900
     13 CL25        -3.1600     0.0200     5.7610 cl         1 TCD      -0.079900
     14 C26         -0.4610     0.0380     5.5690 ca         1 TCD      -0.054500
     15 C27          0.7000     0.0300     4.8290 ca         1 TCD      -0.114400
     16 CL27         2.2370     0.0640     5.5940 cl         1 TCD      -0.059400
     17 C32          0.5940    -0.0290    -3.4530 ca         1 TCD       0.660600
     18 N33         -0.5540    -0.0110    -2.8270 nb         1 TCD      -0.726000
     19 C34         -1.6840     0.0120    -3.5230 ca         1 TCD       0.461200
     20 C35         -1.6900     0.0180    -4.9040 ca         1 TCD      -0.130900
     21 CL35        -3.1770     0.0490    -5.7720 cl         1 TCD      -0.079900
     22 C36         -0.4780    -0.0000    -5.5840 ca         1 TCD      -0.054500
     23 C37          0.6850    -0.0240    -4.8500 ca         1 TCD      -0.114400
     24 CL37         2.2200    -0.0480    -5.6190 cl         1 TCD      -0.059400
     25 H2           1.7240    -2.1650     1.2430 ha         1 TCD       0.150000
     26 H3           1.7180    -2.1830    -1.2340 ha         1 TCD       0.150000
     27 H5           1.6610     2.1000    -1.2650 ha         1 TCD       0.150000
     28 H6           1.6670     2.1180     1.2110 ha         1 TCD       0.150000
     29 H24         -2.6000    -0.0460     2.9490 h4         1 TCD       0.041100
     30 H26         -0.4240     0.0660     6.6490 ha         1 TCD       0.167500
     31 H34         -2.6090     0.0270    -2.9610 h4         1 TCD       0.041100
     32 H36         -0.4450     0.0040    -6.6640 ha         1 TCD       0.167500
@<TRIPOS>BOND
     1     1     2 1   
     2     1     3 ar  
     3     1     8 ar  
     4     2     9 1   
     5     3     4 ar  
     6     3    25 1   
     7     4     5 ar  
     8     4    26 1   
     9     5     6 1   
    10     5     7 ar  
    11     6    17 1   
    12     7     8 ar  
    13     7    27 1   
    14     8    28 1   
    15     9    10 ar  
    16     9    15 ar  
    17    10    11 ar  
    18    11    12 ar  
    19    11    29 1   
    20    12    13 1   
    21    12    14 ar  
    22    14    15 ar  
    23    14    30 1   
    24    15    16 1   
    25    17    18 ar  
    26    17    23 ar  
    27    18    19 ar  
    28    19    20 ar  
    29    19    31 1   
    30    20    21 1   
    31    20    22 ar  
    32    22    23 ar  
    33    22    32 1   
    34    23    24 1   
@<TRIPOS>SUBSTRUCTURE
     1 TCD         1 TEMP              0 ****  ****    0 ROOT
