@<TRIPOS>MOLECULE
TCD
   32    34     1     0     0
SMALL
No Charge or Current Charge


@<TRIPOS>ATOM
      1 C1           1.5670    -0.5630     1.4000 ca         1 TCD       0.109600
      2 O21          1.6060    -0.5740     2.7760 os         1 TCD      -0.351400
      3 C2           2.1760    -1.6170     0.6970 ca         1 TCD      -0.094000
      4 C3           2.1750    -1.6190    -0.7100 ca         1 TCD      -0.094000
      5 C4           1.5670    -0.5680    -1.4170 ca         1 TCD       0.109600
      6 O31          1.6060    -0.5840    -2.7930 os         1 TCD      -0.351400
      7 C5           0.9840     0.5060    -0.7140 ca         1 TCD      -0.094000
      8 C6           0.9840     0.5080     0.6930 ca         1 TCD      -0.094000
      9 C22          0.5370    -0.2090     3.5670 ca         1 TCD       0.595300
     10 N23         -0.7200    -0.4760     3.1310 nb         1 TCD      -0.726000
     11 C24         -1.7540    -0.1280     3.9370 ca         1 TCD       0.395900
     12 C25         -1.5820     0.4830     5.1960 ca         1 TCD       0.026000
     13 Cl25        -2.9720     0.9080     6.1930 cl         1 TCD      -0.171500
     14 C26         -0.2800     0.7480     5.6490 ca         1 TCD      -0.036500
     15 C27          0.7990     0.3920     4.8230 ca         1 TCD       0.042500
     16 Cl27         2.4500     0.7100     5.3680 cl         1 TCD      -0.151000
     17 C32          0.5370    -0.2210    -3.5850 ca         1 TCD       0.595300
     18 N33         -0.7210    -0.4860    -3.1480 nb         1 TCD      -0.726000
     19 C34         -1.7550    -0.1420    -3.9550 ca         1 TCD       0.395900
     20 C35         -1.5830     0.4660    -5.2160 ca         1 TCD       0.026000
     21 Cl35        -2.9730     0.8870    -6.2140 cl         1 TCD      -0.171500
     22 C36         -0.2810     0.7290    -5.6710 ca         1 TCD      -0.036500
     23 C37          0.7980     0.3760    -4.8430 ca         1 TCD       0.042500
     24 Cl37         2.4490     0.6920    -5.3900 cl         1 TCD      -0.151000
     25 H2           2.6450    -2.4310     1.2420 ha         1 TCD       0.132000
     26 H3           2.6450    -2.4350    -1.2530 ha         1 TCD       0.132000
     27 H5           0.5380     1.3380    -1.2520 ha         1 TCD       0.132000
     28 H6           0.5380     1.3420     1.2290 ha         1 TCD       0.132000
     29 H24         -2.7540    -0.3480     3.5640 h4         1 TCD       0.041100
     30 H26         -0.1110     1.2150     6.6160 ha         1 TCD       0.149500
     31 H34         -2.7540    -0.3610    -3.5810 h4         1 TCD       0.041100
     32 H36         -0.1120     1.1930    -6.6390 ha         1 TCD       0.149500
@<TRIPOS>BOND
     1     1     2 1   
     2     1     3 ar  
     3     1     8 ar  
     4     2     9 1   
     5     3     4 ar  
     6     3    25 1   
     7     4     5 ar  
     8     4    26 1   
     9     5     6 1   
    10     5     7 ar  
    11     6    17 1   
    12     7     8 ar  
    13     7    27 1   
    14     8    28 1   
    15     9    10 ar  
    16     9    15 ar  
    17    10    11 ar  
    18    11    12 ar  
    19    11    29 1   
    20    12    13 1   
    21    12    14 ar  
    22    14    15 ar  
    23    14    30 1   
    24    15    16 1   
    25    17    18 ar  
    26    17    23 ar  
    27    18    19 ar  
    28    19    20 ar  
    29    19    31 1   
    30    20    21 1   
    31    20    22 ar  
    32    22    23 ar  
    33    22    32 1   
    34    23    24 1   
@<TRIPOS>SUBSTRUCTURE
     1 TCD         1 TEMP              0 ****  ****    0 ROOT
