@<TRIPOS>MOLECULE
TCE
   28    27     1     0     0
SMALL
bcc


@<TRIPOS>ATOM
      1 O16          4.4070     1.4860     1.0310 o          1 TCE      -0.872300
      2 C14          4.4120     0.6170     0.1380 c          1 TCE       0.926267
      3 O15          5.4200     0.0590    -0.3470 o          1 TCE      -0.872300
      4 C5           3.0570     0.1630    -0.4390 c3         1 TCE      -0.201067
      5 C2           1.8310     0.8870     0.0970 c3         1 TCE       0.159167
      6 P            0.2710     0.3510    -0.7500 p3         1 TCE      -0.780700
      7 C3           0.0520    -1.3260     0.0160 c3         1 TCE       0.159167
      8 C6          -1.2770    -1.9820    -0.3200 c3         1 TCE      -0.201067
      9 C8          -1.4290    -3.4450     0.1450 c          1 TCE       0.926267
     10 O10         -0.4450    -3.9990     0.6720 o          1 TCE      -0.872300
     11 O9          -2.5500    -3.9600    -0.0530 o          1 TCE      -0.872300
     12 C1          -0.9790     1.3690     0.1740 c3         1 TCE       0.159167
     13 C4          -2.2800     1.5440    -0.5970 c3         1 TCE      -0.201067
     14 C11         -3.3450     2.4330     0.0730 c          1 TCE       0.926267
     15 O12         -4.4760     2.4190    -0.4580 o          1 TCE      -0.872300
     16 O13         -3.0050     3.1070     1.0640 o          1 TCE      -0.872300
     17 H5           3.0990     0.2650    -1.5290 hc         1 TCE       0.027033
     18 H5A          2.9660    -0.9140    -0.2610 hc         1 TCE       0.027033
     19 H2           1.7380     0.7480     1.1780 hc         1 TCE       0.033200
     20 H2A          1.9290     1.9630    -0.0700 hc         1 TCE       0.033200
     21 H3           0.8700    -1.9520    -0.3480 hc         1 TCE       0.033200
     22 H3A          0.1790    -1.2460     1.1000 hc         1 TCE       0.033200
     23 H6          -2.1040    -1.4130     0.1140 hc         1 TCE       0.027033
     24 H6A         -1.4490    -1.9530    -1.4020 hc         1 TCE       0.027033
     25 H1          -1.1620     0.9300     1.1590 hc         1 TCE       0.033200
     26 H1A         -0.5260     2.3480     0.3550 hc         1 TCE       0.033200
     27 H4          -2.0610     1.9760    -1.5810 hc         1 TCE       0.027033
     28 H4A         -2.7310     0.5720    -0.8160 hc         1 TCE       0.027033
@<TRIPOS>BOND
     1     1     2 1   
     2     2     3 1   
     3     2     4 1   
     4     4     5 1   
     5     4    17 1   
     6     4    18 1   
     7     5     6 1   
     8     5    19 1   
     9     5    20 1   
    10     6     7 1   
    11     6    12 1   
    12     7     8 1   
    13     7    21 1   
    14     7    22 1   
    15     8     9 1   
    16     8    23 1   
    17     8    24 1   
    18     9    10 1   
    19     9    11 1   
    20    12    13 1   
    21    12    25 1   
    22    12    26 1   
    23    13    14 1   
    24    13    27 1   
    25    13    28 1   
    26    14    15 1   
    27    14    16 1   
@<TRIPOS>SUBSTRUCTURE
     1 TCE         1 TEMP              0 ****  ****    0 ROOT
