@<TRIPOS>MOLECULE
TCE
   28    27     1     0     0
SMALL
No Charge or Current Charge


@<TRIPOS>ATOM
      1 O16          4.5660     0.1180     1.5340 o          1 TCE      -0.767000
      2 C14          4.3000     0.6240     0.4550 c          1 TCE       0.715667
      3 O15          4.9100     1.5760    -0.0080 o          1 TCE      -0.767000
      4 C5           3.1070     0.0720    -0.3320 c3         1 TCE      -0.201067
      5 C2           1.8340     0.8250     0.0960 c3         1 TCE       0.159167
      6 P            0.2880     0.2980    -0.8490 p3         1 TCE      -0.780700
      7 C3          -0.0310    -1.3800    -0.0370 c3         1 TCE       0.159167
      8 C6          -1.3620    -2.0400    -0.4390 c3         1 TCE      -0.201067
      9 C8          -1.4230    -3.4460     0.1710 c          1 TCE       0.715667
     10 O10         -0.9690    -4.3780    -0.4750 o          1 TCE      -0.767000
     11 O9          -1.8840    -3.5700     1.2950 o          1 TCE      -0.767000
     12 C1          -0.9930     1.3840     0.0140 c3         1 TCE       0.159167
     13 C4          -2.2620     1.6130    -0.8280 c3         1 TCE      -0.201067
     14 C11         -3.2180     2.5240    -0.0480 c          1 TCE       0.715667
     15 O12         -4.0240     2.0050     0.7090 o          1 TCE      -0.767000
     16 O13         -3.1040     3.7320    -0.1830 o          1 TCE      -0.767000
     17 H5           3.2270     0.2660    -1.4050 hc         1 TCE       0.027033
     18 H5A          2.9390    -0.9830    -0.0860 hc         1 TCE       0.027033
     19 H2           1.6700     0.6890     1.1730 hc         1 TCE       0.033200
     20 H2A          1.9850     1.9010    -0.0660 hc         1 TCE       0.033200
     21 H3           0.7930    -2.0500    -0.3150 hc         1 TCE       0.033200
     22 H3A          0.0070    -1.2730     1.0550 hc         1 TCE       0.033200
     23 H6          -2.1530    -1.4090    -0.0200 hc         1 TCE       0.027033
     24 H6A         -1.3590    -2.0910    -1.5340 hc         1 TCE       0.027033
     25 H1          -1.2590     0.9500     0.9860 hc         1 TCE       0.033200
     26 H1A         -0.5330     2.3590     0.2220 hc         1 TCE       0.033200
     27 H4          -1.9270     2.1030    -1.7500 hc         1 TCE       0.027033
     28 H4A         -2.7130     0.6280    -0.9890 hc         1 TCE       0.027033
@<TRIPOS>BOND
     1     1     2 1   
     2     2     3 1   
     3     2     4 1   
     4     4     5 1   
     5     4    17 1   
     6     4    18 1   
     7     5     6 1   
     8     5    19 1   
     9     5    20 1   
    10     6     7 1   
    11     6    12 1   
    12     7     8 1   
    13     7    21 1   
    14     7    22 1   
    15     8     9 1   
    16     8    23 1   
    17     8    24 1   
    18     9    10 1   
    19     9    11 1   
    20    12    13 1   
    21    12    25 1   
    22    12    26 1   
    23    13    14 1   
    24    13    27 1   
    25    13    28 1   
    26    14    15 1   
    27    14    16 1   
@<TRIPOS>SUBSTRUCTURE
     1 TCE         1 TEMP              0 ****  ****    0 ROOT
