@<TRIPOS>MOLECULE
TCF
   22    22     1     0     0
SMALL
No Charge or Current Charge


@<TRIPOS>ATOM
      1 C1B         -4.8380    -0.0520    -0.2830 c          1 TCF       0.602100
      2 O1B         -5.4070    -0.0630     0.7960 o          1 TCF      -0.605100
      3 C2B         -3.3150    -0.0370    -0.4500 c3         1 TCF      -0.160400
      4 C3B         -2.4980    -0.0360     0.8630 c3         1 TCF      -0.021100
      5 CB1         -0.9990    -0.0210     0.5980 ca         1 TCF      -0.070300
      6 CB2         -0.3120     1.2030     0.4770 ca         1 TCF      -0.108500
      7 CB3          1.0720     1.2180     0.2270 ca         1 TCF      -0.083000
      8 CB6         -0.2890    -1.2300     0.4640 ca         1 TCF      -0.108500
      9 CB5          1.0950    -1.2160     0.2140 ca         1 TCF      -0.083000
     10 CB4          1.7730     0.0080     0.0960 ca         1 TCF      -0.019900
     11 Br           3.6550     0.0270    -0.2440 br         1 TCF      -0.100100
     12 NXT         -5.5510    -0.0530    -1.4280 nt         1 TCF      -0.612000
     13 H2B1        -3.0400    -0.8760    -1.1000 hc         1 TCF       0.058700
     14 H2B2        -3.0560     0.8140    -1.0910 hc         1 TCF       0.058700
     15 HXT1        -6.5590    -0.0620    -1.3830 hn         1 TCF       0.313000
     16 HXT2        -5.0760    -0.0440    -2.3190 hn         1 TCF       0.313000
     17 H3B1        -2.7840     0.8360     1.4650 hc         1 TCF       0.066200
     18 H3B2        -2.7670    -0.9190     1.4560 hc         1 TCF       0.066200
     19 HB2         -0.8490     2.1440     0.5740 ha         1 TCF       0.117500
     20 HB6         -0.8090    -2.1820     0.5510 ha         1 TCF       0.117500
     21 HB3          1.5980     2.1660     0.1340 ha         1 TCF       0.129000
     22 HB5          1.6380    -2.1530     0.1110 ha         1 TCF       0.129000
@<TRIPOS>BOND
     1     1     2 2   
     2     1     3 1   
     3     1    12 1   
     4     3     4 1   
     5     3    13 1   
     6     3    14 1   
     7     4     5 1   
     8     4    17 1   
     9     4    18 1   
    10     5     6 ar  
    11     5     8 ar  
    12     6     7 ar  
    13     6    19 1   
    14     7    10 ar  
    15     7    21 1   
    16     8     9 ar  
    17     8    20 1   
    18     9    10 ar  
    19     9    22 1   
    20    10    11 1   
    21    12    15 1   
    22    12    16 1   
@<TRIPOS>SUBSTRUCTURE
     1 TCF         1 TEMP              0 ****  ****    0 ROOT
