@<TRIPOS>MOLECULE
TCF
   22    22     1     0     0
SMALL
abcg2


@<TRIPOS>ATOM
      1 C1B         -4.7810     0.0830    -0.2810 c          1 TCF       0.602100
      2 O1B         -5.3160     0.3130     0.7940 o          1 TCF      -0.605100
      3 C2B         -3.2760     0.1080    -0.4620 c3         1 TCF      -0.160400
      4 C3B         -2.5100    -0.1000     0.8410 c3         1 TCF      -0.021100
      5 CB1         -1.0260    -0.0670     0.6030 ca         1 TCF      -0.070300
      6 CB2         -0.3560     1.1460     0.4610 ca         1 TCF      -0.108500
      7 CB3          1.0060     1.1930     0.2010 ca         1 TCF      -0.083000
      8 CB6         -0.2920    -1.2420     0.4790 ca         1 TCF      -0.108500
      9 CB5          1.0720    -1.2190     0.2200 ca         1 TCF      -0.083000
     10 CB4          1.7100     0.0040     0.0820 ca         1 TCF      -0.019900
     11 BR           3.5660     0.0510    -0.2710 br         1 TCF      -0.100100
     12 NXT         -5.4760    -0.1920    -1.3950 nt         1 TCF      -0.612000
     13 H2B1        -2.9770    -0.6400    -1.2010 hc         1 TCF       0.058700
     14 H2B2        -3.0130     1.0790    -0.8950 hc         1 TCF       0.058700
     15 HXT1        -6.4820    -0.1690    -1.3890 hn         1 TCF       0.313000
     16 HXT2        -5.0210    -0.3680    -2.2750 hn         1 TCF       0.313000
     17 H3B1        -2.7870     0.6740     1.5580 hc         1 TCF       0.066200
     18 H3B2        -2.7900    -1.0580     1.2840 hc         1 TCF       0.066200
     19 HB2         -0.9020     2.0770     0.5580 ha         1 TCF       0.117500
     20 HB6         -0.7870    -2.1990     0.5910 ha         1 TCF       0.117500
     21 HB3          1.5020     2.1490     0.0950 ha         1 TCF       0.129000
     22 HB5          1.6180    -2.1490     0.1300 ha         1 TCF       0.129000
@<TRIPOS>BOND
     1     1     2 2   
     2     1     3 1   
     3     1    12 1   
     4     3     4 1   
     5     3    13 1   
     6     3    14 1   
     7     4     5 1   
     8     4    17 1   
     9     4    18 1   
    10     5     6 ar  
    11     5     8 ar  
    12     6     7 ar  
    13     6    19 1   
    14     7    10 ar  
    15     7    21 1   
    16     8     9 ar  
    17     8    20 1   
    18     9    10 ar  
    19     9    22 1   
    20    10    11 1   
    21    12    15 1   
    22    12    16 1   
@<TRIPOS>SUBSTRUCTURE
     1 TCF         1 TEMP              0 ****  ****    0 ROOT
