@<TRIPOS>MOLECULE
TCG
  116   119     1     0     0
SMALL
bcc


@<TRIPOS>ATOM
      1 O73          9.2490     0.2350    -3.7110 o          1 TCG      -0.579100
      2 C73          9.2040     1.3290    -3.1720 c          1 TCG       0.675100
      3 C83          9.8470     2.5480    -3.7820 c3         1 TCG      -0.182100
      4 N23          8.5860     1.5450    -1.9890 ns         1 TCG      -0.580900
      5 C23          8.0350     0.5010    -1.1640 c6         1 TCG       0.036700
      6 C33          6.6280     0.8960    -0.7040 c6         1 TCG       0.135100
      7 O33          5.7570     1.0460    -1.7880 oh         1 TCG      -0.565800
      8 C43          6.0510    -0.1430     0.2500 c6         1 TCG       0.127100
      9 C53          7.0690    -0.4820     1.3510 c6         1 TCG       0.139100
     10 C63          6.6180    -1.6540     2.1960 c3         1 TCG       0.146400
     11 O63          7.4800    -1.7750     3.3010 oh         1 TCG      -0.583800
     12 O53          8.3150    -0.8260     0.7890 os         1 TCG      -0.421600
     13 C13          8.9090     0.2180     0.0540 c6         1 TCG       0.337900
     14 O13         10.1550    -0.1840    -0.3610 oh         1 TCG      -0.558800
     15 O43          4.9000     0.4060     0.8680 os         1 TCG      -0.382600
     16 C12          3.7150    -0.2880     0.7720 c6         1 TCG       0.343900
     17 O52          3.1140     0.0100    -0.4540 os         1 TCG      -0.398600
     18 C52          1.9060    -0.6830    -0.6760 c6         1 TCG       0.136100
     19 C62          1.4700    -0.3820    -2.0930 c3         1 TCG       0.151400
     20 O62          2.3550    -1.0150    -2.9830 oh         1 TCG      -0.574800
     21 C42          0.8600    -0.2590     0.3670 c6         1 TCG       0.124100
     22 C32          1.4200    -0.4830     1.7660 c6         1 TCG       0.137100
     23 O32          0.5130     0.0270     2.7020 oh         1 TCG      -0.568800
     24 C22          2.8000     0.1630     1.9130 c6         1 TCG       0.037700
     25 N22          3.3550    -0.1840     3.1980 ns         1 TCG      -0.588900
     26 C72          4.0640     0.6630     3.9810 c          1 TCG       0.676100
     27 C82          4.7360     0.0040     5.1600 c3         1 TCG      -0.187100
     28 O72          4.1680     1.8550     3.7510 o          1 TCG      -0.574100
     29 O42         -0.2920    -1.0660     0.2220 os         1 TCG      -0.373600
     30 C11         -1.4520    -0.4690    -0.2120 c6         1 TCG       0.341900
     31 O51         -2.0800     0.1530     0.8720 os         1 TCG      -0.385600
     32 C51         -3.2440     0.8640     0.5170 c6         1 TCG       0.140100
     33 C61         -3.7210     1.5890     1.7590 c3         1 TCG       0.154400
     34 O61         -2.7750     2.5650     2.1070 oh         1 TCG      -0.572800
     35 C41         -4.2980    -0.1140    -0.0230 c6         1 TCG       0.126100
     36 C31         -3.7150    -0.9440    -1.1600 c6         1 TCG       0.142100
     37 O31         -4.6470    -1.9240    -1.5190 oh         1 TCG      -0.574800
     38 C21         -2.3700    -1.5570    -0.7700 c6         1 TCG       0.041700
     39 N21         -1.7870    -2.2000    -1.9210 ns         1 TCG      -0.590900
     40 C71         -1.1000    -3.3660    -1.8770 c          1 TCG       0.676100
     41 C81         -0.3650    -3.7050    -3.1490 c3         1 TCG      -0.187100
     42 O71         -1.0620    -4.0810    -0.8910 o          1 TCG      -0.564100
     43 O41         -5.3910     0.6020    -0.5890 os         1 TCG      -0.442600
     44 C1          -6.6090     0.6090     0.0560 c6         1 TCG       0.366900
     45 C2          -7.6880     1.1980    -0.8940 c6         1 TCG       0.116500
     46 N2          -7.3560     2.6360    -1.3400 n4         1 TCG      -0.603800
     47 C9          -8.5410     3.3860    -1.8730 c3         1 TCG       0.107433
     48 C8          -6.7950     3.4540    -0.2240 c3         1 TCG       0.107433
     49 C7          -6.3640     2.6040    -2.4630 c3         1 TCG       0.107433
     50 C3          -9.0600     1.0690    -0.2060 c6         1 TCG       0.137100
     51 O3         -10.0720     1.2450    -1.1610 oh         1 TCG      -0.607800
     52 C4          -9.2700    -0.3060     0.4520 c6         1 TCG       0.087100
     53 O4         -10.4350    -0.1790     1.2290 oh         1 TCG      -0.595800
     54 C5          -8.0610    -0.7400     1.2660 c6         1 TCG       0.118100
     55 O5          -6.9630    -0.6910     0.3770 os         1 TCG      -0.380600
     56 C6          -8.1840    -2.1450     1.8050 c3         1 TCG       0.152400
     57 O6          -7.0440    -2.4290     2.5780 oh         1 TCG      -0.585800
     58 H1           9.6820     2.5540    -4.8580 hc         1 TCG       0.061700
     59 H2           9.4820     3.4850    -3.3650 hc         1 TCG       0.061700
     60 H3          10.9240     2.5020    -3.6140 hc         1 TCG       0.061700
     61 H4           8.6500     2.4690    -1.5880 hn         1 TCG       0.304500
     62 H5           7.9810    -0.4090    -1.7670 h1         1 TCG       0.122700
     63 H6           6.7180     1.8390    -0.1360 h1         1 TCG       0.037700
     64 H7           6.1160     1.7320    -2.3610 ho         1 TCG       0.411000
     65 H8           5.8010    -1.0530    -0.3130 h1         1 TCG       0.076700
     66 H9           7.1740     0.4070     1.9960 h1         1 TCG       0.063700
     67 H10          5.5860    -1.4820     2.5170 h1         1 TCG       0.026200
     68 H11          6.6140    -2.5600     1.5740 h1         1 TCG       0.026200
     69 H12          7.1810    -2.5200     3.8300 ho         1 TCG       0.405000
     70 H13          8.9600     1.1210     0.6890 h2         1 TCG       0.014700
     71 H14         10.7840    -0.0750     0.3610 ho         1 TCG       0.422000
     72 H15          3.8820    -1.3810     0.8460 h2         1 TCG       0.017700
     73 H16          2.0610    -1.7710    -0.5740 h1         1 TCG       0.064700
     74 H17          0.4460    -0.7400    -2.2350 h1         1 TCG       0.019200
     75 H18          1.4490     0.7080    -2.2310 h1         1 TCG       0.019200
     76 H19          2.0760    -0.8080    -3.8790 ho         1 TCG       0.405000
     77 H20          0.6220     0.8050     0.2340 h1         1 TCG       0.075700
     78 H21          1.5460    -1.5730     1.8900 h1         1 TCG       0.039700
     79 H22          0.8500    -0.1720     3.5820 ho         1 TCG       0.414000
     80 H23          2.6970     1.2500     1.8620 h1         1 TCG       0.120700
     81 H24          3.3500    -1.1610     3.4510 hn         1 TCG       0.303500
     82 H25          4.2400    -0.9150     5.4700 hc         1 TCG       0.065033
     83 H26          5.7630    -0.2500     4.8870 hc         1 TCG       0.065033
     84 H27          4.7760     0.6890     6.0030 hc         1 TCG       0.065033
     85 H28         -1.2520     0.2850    -0.9980 h2         1 TCG       0.012700
     86 H29         -3.0190     1.6020    -0.2710 h1         1 TCG       0.044700
     87 H30         -4.7000     2.0390     1.5580 h1         1 TCG       0.017700
     88 H31         -3.8710     0.8520     2.5590 h1         1 TCG       0.017700
     89 H32         -3.0660     2.9830     2.9220 ho         1 TCG       0.415000
     90 H33         -4.6300    -0.7760     0.7840 h1         1 TCG       0.110700
     91 H34         -3.5300    -0.2490    -1.9980 h1         1 TCG       0.019700
     92 H35         -4.3060    -2.3920    -2.2880 ho         1 TCG       0.422000
     93 H36         -2.5240    -2.3090     0.0080 h1         1 TCG       0.129700
     94 H37         -1.7310    -1.6540    -2.7680 hn         1 TCG       0.299500
     95 H38          0.6780    -3.3990    -3.0470 hc         1 TCG       0.068033
     96 H39         -0.3790    -4.7800    -3.3150 hc         1 TCG       0.068033
     97 H40         -0.7720    -3.2040    -4.0260 hc         1 TCG       0.068033
     98 H41         -6.5790     1.2030     0.9860 h2         1 TCG       0.032700
     99 H42         -7.6970     0.6040    -1.8110 hx         1 TCG       0.129700
    100 H43         -9.2630     3.5680    -1.0850 hx         1 TCG       0.096033
    101 H44         -8.1710     4.3400    -2.2420 hx         1 TCG       0.096033
    102 H45         -8.9920     2.8320    -2.6870 hx         1 TCG       0.096033
    103 H46         -5.8070     3.0970     0.0450 hx         1 TCG       0.096033
    104 H47         -6.7060     4.4820    -0.5650 hx         1 TCG       0.096033
    105 H48         -7.4610     3.4210     0.6340 hx         1 TCG       0.096033
    106 H49         -6.8030     2.0730    -3.3030 hx         1 TCG       0.096033
    107 H50         -6.1470     3.6280    -2.7520 hx         1 TCG       0.096033
    108 H51         -5.4540     2.1130    -2.1500 hx         1 TCG       0.096033
    109 H52         -9.1230     1.8230     0.5960 h1         1 TCG       0.054700
    110 H53        -10.9140     1.2860    -0.6950 ho         1 TCG       0.451000
    111 H54         -9.4060    -1.0370    -0.3570 h1         1 TCG       0.075700
    112 H55        -10.9150    -1.0120     1.2220 ho         1 TCG       0.436000
    113 H56         -7.9070    -0.0450     2.1060 h1         1 TCG       0.069700
    114 H57         -9.1030    -2.1990     2.4000 h1         1 TCG       0.040200
    115 H58         -8.2990    -2.8460     0.9660 h1         1 TCG       0.040200
    116 H59         -7.1460    -3.3120     2.9440 ho         1 TCG       0.427000
@<TRIPOS>BOND
     1     1     2 2   
     2     2     3 1   
     3     2     4 1   
     4     3    58 1   
     5     3    59 1   
     6     3    60 1   
     7     4     5 1   
     8     4    61 1   
     9     5     6 1   
    10     5    13 1   
    11     5    62 1   
    12     6     7 1   
    13     6     8 1   
    14     6    63 1   
    15     7    64 1   
    16     8     9 1   
    17     8    15 1   
    18     8    65 1   
    19     9    10 1   
    20     9    12 1   
    21     9    66 1   
    22    10    11 1   
    23    10    67 1   
    24    10    68 1   
    25    11    69 1   
    26    12    13 1   
    27    13    14 1   
    28    13    70 1   
    29    14    71 1   
    30    15    16 1   
    31    16    17 1   
    32    16    24 1   
    33    16    72 1   
    34    17    18 1   
    35    18    19 1   
    36    18    21 1   
    37    18    73 1   
    38    19    20 1   
    39    19    74 1   
    40    19    75 1   
    41    20    76 1   
    42    21    22 1   
    43    21    29 1   
    44    21    77 1   
    45    22    23 1   
    46    22    24 1   
    47    22    78 1   
    48    23    79 1   
    49    24    25 1   
    50    24    80 1   
    51    25    26 1   
    52    25    81 1   
    53    26    27 1   
    54    26    28 2   
    55    27    82 1   
    56    27    83 1   
    57    27    84 1   
    58    29    30 1   
    59    30    31 1   
    60    30    38 1   
    61    30    85 1   
    62    31    32 1   
    63    32    33 1   
    64    32    35 1   
    65    32    86 1   
    66    33    34 1   
    67    33    87 1   
    68    33    88 1   
    69    34    89 1   
    70    35    36 1   
    71    35    43 1   
    72    35    90 1   
    73    36    37 1   
    74    36    38 1   
    75    36    91 1   
    76    37    92 1   
    77    38    39 1   
    78    38    93 1   
    79    39    40 1   
    80    39    94 1   
    81    40    41 1   
    82    40    42 2   
    83    41    95 1   
    84    41    96 1   
    85    41    97 1   
    86    43    44 1   
    87    44    45 1   
    88    44    55 1   
    89    44    98 1   
    90    45    46 1   
    91    45    50 1   
    92    45    99 1   
    93    46    47 1   
    94    46    48 1   
    95    46    49 1   
    96    47   100 1   
    97    47   101 1   
    98    47   102 1   
    99    48   103 1   
   100    48   104 1   
   101    48   105 1   
   102    49   106 1   
   103    49   107 1   
   104    49   108 1   
   105    50    51 1   
   106    50    52 1   
   107    50   109 1   
   108    51   110 1   
   109    52    53 1   
   110    52    54 1   
   111    52   111 1   
   112    53   112 1   
   113    54    55 1   
   114    54    56 1   
   115    54   113 1   
   116    56    57 1   
   117    56   114 1   
   118    56   115 1   
   119    57   116 1   
@<TRIPOS>SUBSTRUCTURE
     1 TCG         1 TEMP              0 ****  ****    0 ROOT
