@<TRIPOS>MOLECULE
TCG
  116   119     1     0     0
SMALL
No Charge or Current Charge


@<TRIPOS>ATOM
      1 O73          8.9970     1.7920    -3.9490 o          1 TCG      -0.579100
      2 C73          9.1360     2.6000    -3.0440 c          1 TCG       0.608100
      3 C83          9.9100     3.9000    -3.2180 c3         1 TCG      -0.182100
      4 N23          8.5890     2.4180    -1.7930 ns         1 TCG      -0.513900
      5 C23          7.9020     1.1820    -1.3240 c6         1 TCG       0.036700
      6 C33          6.6810     1.5270    -0.4220 c6         1 TCG       0.158300
      7 O33          5.7610     2.3730    -1.1390 oh         1 TCG      -0.688000
      8 C43          5.9870     0.2280     0.1070 c6         1 TCG       0.150300
      9 C53          7.0590    -0.6700     0.8110 c6         1 TCG       0.162300
     10 C63          6.5220    -2.0470     1.3230 c3         1 TCG       0.169600
     11 O63          7.5520    -2.8960     1.8660 oh         1 TCG      -0.706000
     12 O53          8.1510    -0.9310    -0.1090 os         1 TCG      -0.468000
     13 C13          8.8540     0.2380    -0.5270 c6         1 TCG       0.384300
     14 O13          9.9070    -0.2480    -1.3320 oh         1 TCG      -0.621000
     15 O43          4.8820     0.5700     0.9860 os         1 TCG      -0.429000
     16 C12          3.7350    -0.2990     0.9420 c6         1 TCG       0.390300
     17 O52          3.0040    -0.0220    -0.2640 os         1 TCG      -0.445000
     18 C52          1.8640    -0.8890    -0.4820 c6         1 TCG       0.159300
     19 C62          1.3110    -0.6080    -1.9180 c3         1 TCG       0.174600
     20 O62          2.3140    -0.7240    -2.9450 oh         1 TCG      -0.697000
     21 C42          0.8270    -0.6780     0.6700 c6         1 TCG       0.147300
     22 C32          1.5400    -0.9250     2.0400 c6         1 TCG       0.160300
     23 O32          0.6560    -0.6840     3.1530 oh         1 TCG      -0.691000
     24 C22          2.8200    -0.0510     2.1790 c6         1 TCG       0.037700
     25 N22          3.5220    -0.3390     3.4610 ns         1 TCG      -0.521900
     26 C72          4.2070     0.5860     4.2190 c          1 TCG       0.609100
     27 C82          4.9640     0.0010     5.4020 c3         1 TCG      -0.187100
     28 O72          4.1980     1.7800     3.9690 o          1 TCG      -0.574100
     29 O42         -0.3310    -1.5430     0.5420 os         1 TCG      -0.420000
     30 C11         -1.4650    -0.9950    -0.1570 c6         1 TCG       0.388300
     31 O51         -2.1290    -0.0670     0.7160 os         1 TCG      -0.432000
     32 C51         -3.2410     0.6330     0.1060 c6         1 TCG       0.163300
     33 C61         -3.7080     1.7460     1.0990 c3         1 TCG       0.177600
     34 O61         -2.6390     2.6070     1.5320 oh         1 TCG      -0.695000
     35 C41         -4.3470    -0.4010    -0.2870 c6         1 TCG       0.149300
     36 C31         -3.7110    -1.4900    -1.2140 c6         1 TCG       0.165300
     37 O31         -4.6610    -2.5160    -1.5620 oh         1 TCG      -0.697000
     38 C21         -2.4510    -2.1300    -0.5630 c6         1 TCG       0.041700
     39 N21         -1.8190    -3.1140    -1.4860 ns         1 TCG      -0.523900
     40 C71         -1.1820    -4.2730    -1.0990 c          1 TCG       0.609100
     41 C81         -0.4890    -5.0230    -2.2250 c3         1 TCG      -0.187100
     42 O71         -1.1840    -4.6730     0.0540 o          1 TCG      -0.564100
     43 O41         -5.4910     0.2110    -0.9510 os         1 TCG      -0.489000
     44 C1          -6.5960     0.6200    -0.1170 c6         1 TCG       0.413300
     45 C2          -7.6760     1.4110    -0.9560 c6         1 TCG       0.088300
     46 N2          -7.1480     2.7790    -1.6200 n4         1 TCG      -0.491000
     47 C9          -8.1820     3.3370    -2.6140 c3         1 TCG       0.079233
     48 C8          -6.8850     3.8550    -0.5540 c3         1 TCG       0.079233
     49 C7          -5.8570     2.5710    -2.4290 c3         1 TCG       0.079233
     50 C3          -8.9610     1.5810    -0.0440 c6         1 TCG       0.160300
     51 O3         -10.0900     2.0890    -0.7690 oh         1 TCG      -0.670000
     52 C4          -9.4210     0.2420     0.6160 c6         1 TCG       0.110300
     53 O4         -10.5620     0.4790     1.4830 oh         1 TCG      -0.718000
     54 C5          -8.2230    -0.3830     1.3780 c6         1 TCG       0.141300
     55 O5          -7.1540    -0.5850     0.4340 os         1 TCG      -0.427000
     56 C6          -8.5530    -1.7620     2.0380 c3         1 TCG       0.175600
     57 O6          -7.4110    -2.3660     2.6780 oh         1 TCG      -0.708000
     58 H1          10.3160     4.0170    -4.2290 hc         1 TCG       0.061700
     59 H2           9.2640     4.7400    -2.9410 hc         1 TCG       0.061700
     60 H3          10.6960     3.9500    -2.4570 hc         1 TCG       0.061700
     61 H4           8.7950     3.1410    -1.1120 hn         1 TCG       0.304500
     62 H5           7.5370     0.6220    -2.1980 h1         1 TCG       0.122700
     63 H6           7.0610     2.0760     0.4530 h1         1 TCG       0.037700
     64 H7           6.3080     3.0320    -1.6230 ho         1 TCG       0.510000
     65 H8           5.5920    -0.3160    -0.7640 h1         1 TCG       0.076700
     66 H9           7.4580    -0.1280     1.6820 h1         1 TCG       0.063700
     67 H10          5.7680    -1.8550     2.0980 h1         1 TCG       0.026200
     68 H11          6.0190    -2.5530     0.4880 h1         1 TCG       0.026200
     69 H12          7.1390    -3.7700     2.0550 ho         1 TCG       0.504000
     70 H13          9.2650     0.7580     0.3510 h2         1 TCG       0.014700
     71 H14          9.9520    -1.1960    -1.0900 ho         1 TCG       0.461000
     72 H15          4.0550    -1.3490     0.9360 h2         1 TCG       0.017700
     73 H16          2.2090    -1.9330    -0.4630 h1         1 TCG       0.064700
     74 H17          0.5030    -1.3220    -2.1230 h1         1 TCG       0.019200
     75 H18          0.8770     0.4010    -1.9300 h1         1 TCG       0.019200
     76 H19          1.9070    -0.4080    -3.7850 ho         1 TCG       0.504000
     77 H20          0.4930     0.3700     0.6530 h1         1 TCG       0.075700
     78 H21          1.8560    -1.9800     2.0590 h1         1 TCG       0.039700
     79 H22          1.2270    -0.6080     3.9510 ho         1 TCG       0.513000
     80 H23          2.5240     1.0080     2.1630 h1         1 TCG       0.120700
     81 H24          3.6160    -1.3060     3.7540 hn         1 TCG       0.303500
     82 H25          4.2690    -0.5800     6.0190 hc         1 TCG       0.065033
     83 H26          5.6540    -0.7680     5.0380 hc         1 TCG       0.065033
     84 H27          5.4840     0.7670     5.9890 hc         1 TCG       0.065033
     85 H28         -1.1330    -0.4650    -1.0600 h2         1 TCG       0.012700
     86 H29         -2.8790     1.1320    -0.8050 h1         1 TCG       0.044700
     87 H30         -4.4730     2.3500     0.5990 h1         1 TCG       0.017700
     88 H31         -4.1770     1.2620     1.9670 h1         1 TCG       0.017700
     89 H32         -2.9940     3.1690     2.2590 ho         1 TCG       0.514000
     90 H33         -4.6870    -0.9090     0.6290 h1         1 TCG       0.110700
     91 H34         -3.3850    -0.9850    -2.1350 h1         1 TCG       0.019700
     92 H35         -4.1430    -3.2520    -1.9590 ho         1 TCG       0.521000
     93 H36         -2.7560    -2.6470     0.3600 h1         1 TCG       0.129700
     94 H37         -1.7360    -2.8710    -2.4680 hn         1 TCG       0.299500
     95 H38          0.2240    -4.3500    -2.7140 hc         1 TCG       0.068033
     96 H39         -0.0060    -5.9450    -1.8820 hc         1 TCG       0.068033
     97 H40         -1.2130    -5.2180    -3.0240 hc         1 TCG       0.068033
     98 H41         -6.2400     1.2550     0.7040 h2         1 TCG       0.032700
     99 H42         -7.9440     0.7750    -1.8030 hx         1 TCG       0.129700
    100 H43         -9.0760     3.6530    -2.0760 hx         1 TCG       0.096033
    101 H44         -7.7550     4.1980    -3.1330 hx         1 TCG       0.096033
    102 H45         -8.4410     2.5630    -3.3390 hx         1 TCG       0.096033
    103 H46         -6.1450     3.4920     0.1600 hx         1 TCG       0.096033
    104 H47         -6.5120     4.7590    -1.0400 hx         1 TCG       0.096033
    105 H48         -7.8180     4.0840    -0.0340 hx         1 TCG       0.096033
    106 H49         -6.0100     1.7660    -3.1520 hx         1 TCG       0.096033
    107 H50         -5.6060     3.4950    -2.9550 hx         1 TCG       0.096033
    108 H51         -5.0400     2.3090    -1.7550 hx         1 TCG       0.096033
    109 H52         -8.7070     2.2760     0.7700 h1         1 TCG       0.054700
    110 H53        -10.8580     1.9250    -0.1720 ho         1 TCG       0.490000
    111 H54         -9.7000    -0.4520    -0.1930 h1         1 TCG       0.075700
    112 H55        -11.0840    -0.3590     1.5400 ho         1 TCG       0.535000
    113 H56         -7.8840     0.3030     2.1690 h1         1 TCG       0.069700
    114 H57         -9.3540    -1.6110     2.7740 h1         1 TCG       0.040200
    115 H58         -8.9450    -2.4290     1.2590 h1         1 TCG       0.040200
    116 H59         -7.6950    -3.2550     2.9990 ho         1 TCG       0.526000
@<TRIPOS>BOND
     1     1     2 2   
     2     2     3 1   
     3     2     4 1   
     4     3    58 1   
     5     3    59 1   
     6     3    60 1   
     7     4     5 1   
     8     4    61 1   
     9     5     6 1   
    10     5    13 1   
    11     5    62 1   
    12     6     7 1   
    13     6     8 1   
    14     6    63 1   
    15     7    64 1   
    16     8     9 1   
    17     8    15 1   
    18     8    65 1   
    19     9    10 1   
    20     9    12 1   
    21     9    66 1   
    22    10    11 1   
    23    10    67 1   
    24    10    68 1   
    25    11    69 1   
    26    12    13 1   
    27    13    14 1   
    28    13    70 1   
    29    14    71 1   
    30    15    16 1   
    31    16    17 1   
    32    16    24 1   
    33    16    72 1   
    34    17    18 1   
    35    18    19 1   
    36    18    21 1   
    37    18    73 1   
    38    19    20 1   
    39    19    74 1   
    40    19    75 1   
    41    20    76 1   
    42    21    22 1   
    43    21    29 1   
    44    21    77 1   
    45    22    23 1   
    46    22    24 1   
    47    22    78 1   
    48    23    79 1   
    49    24    25 1   
    50    24    80 1   
    51    25    26 1   
    52    25    81 1   
    53    26    27 1   
    54    26    28 2   
    55    27    82 1   
    56    27    83 1   
    57    27    84 1   
    58    29    30 1   
    59    30    31 1   
    60    30    38 1   
    61    30    85 1   
    62    31    32 1   
    63    32    33 1   
    64    32    35 1   
    65    32    86 1   
    66    33    34 1   
    67    33    87 1   
    68    33    88 1   
    69    34    89 1   
    70    35    36 1   
    71    35    43 1   
    72    35    90 1   
    73    36    37 1   
    74    36    38 1   
    75    36    91 1   
    76    37    92 1   
    77    38    39 1   
    78    38    93 1   
    79    39    40 1   
    80    39    94 1   
    81    40    41 1   
    82    40    42 2   
    83    41    95 1   
    84    41    96 1   
    85    41    97 1   
    86    43    44 1   
    87    44    45 1   
    88    44    55 1   
    89    44    98 1   
    90    45    46 1   
    91    45    50 1   
    92    45    99 1   
    93    46    47 1   
    94    46    48 1   
    95    46    49 1   
    96    47   100 1   
    97    47   101 1   
    98    47   102 1   
    99    48   103 1   
   100    48   104 1   
   101    48   105 1   
   102    49   106 1   
   103    49   107 1   
   104    49   108 1   
   105    50    51 1   
   106    50    52 1   
   107    50   109 1   
   108    51   110 1   
   109    52    53 1   
   110    52    54 1   
   111    52   111 1   
   112    53   112 1   
   113    54    55 1   
   114    54    56 1   
   115    54   113 1   
   116    56    57 1   
   117    56   114 1   
   118    56   115 1   
   119    57   116 1   
@<TRIPOS>SUBSTRUCTURE
     1 TCG         1 TEMP              0 ****  ****    0 ROOT
