@<TRIPOS>MOLECULE
TCH
   79    82     1     0     0
SMALL
bcc


@<TRIPOS>ATOM
      1 C1          -6.8030     1.6990     0.6250 c6         1 TCH      -0.065400
      2 C2          -7.2050     1.7780    -0.8410 c6         1 TCH      -0.111400
      3 C3          -8.0570     0.5710    -1.2010 c6         1 TCH       0.148100
      4 O3          -8.4540     0.5680    -2.5590 oh         1 TCH      -0.595800
      5 C4          -7.2720    -0.6990    -0.9350 c6         1 TCH      -0.075400
      6 C5          -6.8360    -0.8010     0.5320 c6         1 TCH      -0.040700
      7 C6          -6.1000    -2.1080     0.8280 c6         1 TCH      -0.105400
      8 C7          -4.6730    -2.1720     0.2900 c6         1 TCH       0.155100
      9 O7          -4.6190    -2.2960    -1.1200 oh         1 TCH      -0.589800
     10 C8          -3.8780    -0.9390     0.7100 c6         1 TCH      -0.033700
     11 C9          -4.6060     0.3840     0.3970 c6         1 TCH      -0.038700
     12 C10         -6.0270     0.4270     1.0170 c6         1 TCH      -0.033000
     13 C11         -3.7370     1.5740     0.8150 c6         1 TCH      -0.109400
     14 C12         -2.3120     1.5640     0.2490 c6         1 TCH       0.161100
     15 O12         -2.3110     1.7330    -1.1550 oh         1 TCH      -0.590800
     16 C13         -1.6020     0.2490     0.5960 c5         1 TCH      -0.032000
     17 C14         -2.4830    -0.9140     0.1000 c5         1 TCH      -0.061700
     18 C15         -1.6010    -2.1400     0.2900 c5         1 TCH      -0.070400
     19 C16         -0.1800    -1.6210    -0.0070 c5         1 TCH      -0.078400
     20 C17         -0.2710    -0.0770    -0.1350 c5         1 TCH      -0.047700
     21 C18         -1.3670     0.2040     2.1110 c3         1 TCH      -0.084100
     22 C19         -5.9640     0.4250     2.5520 c3         1 TCH      -0.086100
     23 O1S         10.1140    -0.0080    -1.5300 o          1 TCH      -0.692867
     24 C20          1.0160     0.6190     0.3360 c3         1 TCH      -0.052700
     25 C21          0.9450     2.1390     0.2140 c3         1 TCH      -0.085100
     26 C22          2.2250     0.0730    -0.4390 c3         1 TCH      -0.064400
     27 C23          3.5560     0.5810     0.0930 c3         1 TCH      -0.162400
     28 C24          4.7680    -0.1230    -0.4860 c          1 TCH       0.654100
     29 N24          5.9430     0.3020     0.0090 ns         1 TCH      -0.567900
     30 O24          4.6990    -1.0040    -1.3330 o          1 TCH      -0.620100
     31 C25          7.2180    -0.2390    -0.4130 c3         1 TCH       0.142000
     32 C26          8.3360     0.4570     0.3410 c3         1 TCH      -0.269600
     33 S26          9.9640    -0.1960    -0.0740 s6         1 TCH       1.215800
     34 O2S          9.9370    -1.6160     0.3270 o          1 TCH      -0.692867
     35 O3S         10.9070     0.6150     0.7200 o          1 TCH      -0.692867
     36 H1          -6.2420     2.5900     0.9150 hc         1 TCH       0.037200
     37 H1A         -7.7180     1.7220     1.2290 hc         1 TCH       0.037200
     38 H2          -7.7610     2.7040    -1.0160 hc         1 TCH       0.046200
     39 H2A         -6.3270     1.8060    -1.4940 hc         1 TCH       0.046200
     40 H3          -8.9440     0.5760    -0.5450 h1         1 TCH       0.020700
     41 HO3         -8.9590     1.3700    -2.7230 ho         1 TCH       0.398000
     42 H4          -7.8880    -1.5720    -1.1750 hc         1 TCH       0.060700
     43 H4A         -6.4120    -0.7250    -1.6060 hc         1 TCH       0.060700
     44 H5          -7.7610    -0.8150     1.1250 hc         1 TCH       0.035700
     45 H6          -6.0520    -2.2570     1.9110 hc         1 TCH       0.041200
     46 H6A         -6.6780    -2.9580     0.4460 hc         1 TCH       0.041200
     47 H7          -4.1900    -3.0490     0.7470 h1         1 TCH       0.028700
     48 HO7         -5.2000    -3.0170    -1.3780 ho         1 TCH       0.396000
     49 H8          -3.7700    -1.0300     1.7970 hc         1 TCH       0.043700
     50 H9          -4.7170     0.4410    -0.6920 hc         1 TCH       0.070700
     51 H11         -4.2060     2.5140     0.5070 hc         1 TCH       0.037200
     52 H11A        -3.6720     1.6310     1.9040 hc         1 TCH       0.037200
     53 H12         -1.7810     2.4010     0.7240 h1         1 TCH       0.029700
     54 HO12        -2.8550     2.4990    -1.3610 ho         1 TCH       0.396000
     55 H14         -2.6030    -0.7630    -0.9790 hc         1 TCH       0.082700
     56 H15         -1.6720    -2.5120     1.3160 hc         1 TCH       0.037200
     57 H15A        -1.8890    -2.9650    -0.3620 hc         1 TCH       0.037200
     58 H16          0.5080    -1.9000     0.7950 hc         1 TCH       0.046700
     59 H16A         0.2210    -2.0650    -0.9190 hc         1 TCH       0.046700
     60 H17         -0.4070     0.1700    -1.1940 hc         1 TCH       0.069700
     61 H18         -2.2890     0.1730     2.6920 hc         1 TCH       0.032033
     62 H18A        -0.7760    -0.6640     2.4080 hc         1 TCH       0.032033
     63 H18B        -0.8200     1.0890     2.4420 hc         1 TCH       0.032033
     64 H19         -5.6380     1.3930     2.9380 hc         1 TCH       0.032033
     65 H19A        -6.9560     0.2360     2.9670 hc         1 TCH       0.032033
     66 H19B        -5.2930    -0.3270     2.9640 hc         1 TCH       0.032033
     67 H20          1.1710     0.3610     1.3930 hc         1 TCH       0.038700
     68 H21          1.8900     2.6130     0.4820 hc         1 TCH       0.029700
     69 H21A         0.7030     2.4380    -0.8080 hc         1 TCH       0.029700
     70 H21B         0.1890     2.5690     0.8690 hc         1 TCH       0.029700
     71 H22          2.2300    -1.0160    -0.3850 hc         1 TCH       0.055700
     72 H37          2.1190     0.3260    -1.4990 hc         1 TCH       0.055700
     73 H23          3.6750     1.6520    -0.0910 hc         1 TCH       0.047200
     74 H39          3.5840     0.4680     1.1830 hc         1 TCH       0.047200
     75 HN24         5.9390     1.0340     0.7000 hn         1 TCH       0.303500
     76 H25          7.2540    -1.3140    -0.2200 h1         1 TCH       0.063200
     77 H25A         7.3510    -0.0970    -1.4880 h1         1 TCH       0.063200
     78 H26          8.3480     1.5260     0.1190 h1         1 TCH       0.066700
     79 H26A         8.2120     0.3370     1.4200 h1         1 TCH       0.066700
@<TRIPOS>BOND
     1     1     2 1   
     2     1    12 1   
     3     1    36 1   
     4     1    37 1   
     5     2     3 1   
     6     2    38 1   
     7     2    39 1   
     8     3     4 1   
     9     3     5 1   
    10     3    40 1   
    11     4    41 1   
    12     5     6 1   
    13     5    42 1   
    14     5    43 1   
    15     6     7 1   
    16     6    12 1   
    17     6    44 1   
    18     7     8 1   
    19     7    45 1   
    20     7    46 1   
    21     8     9 1   
    22     8    10 1   
    23     8    47 1   
    24     9    48 1   
    25    10    11 1   
    26    10    17 1   
    27    10    49 1   
    28    11    12 1   
    29    11    13 1   
    30    11    50 1   
    31    12    22 1   
    32    13    14 1   
    33    13    51 1   
    34    13    52 1   
    35    14    15 1   
    36    14    16 1   
    37    14    53 1   
    38    15    54 1   
    39    16    17 1   
    40    16    20 1   
    41    16    21 1   
    42    17    18 1   
    43    17    55 1   
    44    18    19 1   
    45    18    56 1   
    46    18    57 1   
    47    19    20 1   
    48    19    58 1   
    49    19    59 1   
    50    20    24 1   
    51    20    60 1   
    52    21    61 1   
    53    21    62 1   
    54    21    63 1   
    55    22    64 1   
    56    22    65 1   
    57    22    66 1   
    58    23    33 1   
    59    24    25 1   
    60    24    26 1   
    61    24    67 1   
    62    25    68 1   
    63    25    69 1   
    64    25    70 1   
    65    26    27 1   
    66    26    71 1   
    67    26    72 1   
    68    27    28 1   
    69    27    73 1   
    70    27    74 1   
    71    28    29 1   
    72    28    30 2   
    73    29    31 1   
    74    29    75 1   
    75    31    32 1   
    76    31    76 1   
    77    31    77 1   
    78    32    33 1   
    79    32    78 1   
    80    32    79 1   
    81    33    34 1   
    82    33    35 1   
@<TRIPOS>SUBSTRUCTURE
     1 TCH         1 TEMP              0 ****  ****    0 ROOT
