@<TRIPOS>MOLECULE
TCH
   79    82     1     0     0
SMALL
No Charge or Current Charge


@<TRIPOS>ATOM
      1 C1          -6.9600     1.5240     0.5340 c6         1 TCH      -0.065400
      2 C2          -7.2160     1.6210    -0.9890 c6         1 TCH      -0.111400
      3 C3          -7.9290     0.3470    -1.4920 c6         1 TCH       0.171300
      4 O3          -8.1410     0.4310    -2.9030 oh         1 TCH      -0.658000
      5 C4          -7.0870    -0.9030    -1.1540 c6         1 TCH      -0.075400
      6 C5          -6.7840    -1.0140     0.3790 c6         1 TCH      -0.040700
      7 C6          -5.9700    -2.3040     0.7190 c6         1 TCH      -0.105400
      8 C7          -4.4720    -2.2480     0.3080 c6         1 TCH       0.178300
      9 O7          -4.3250    -2.4430    -1.1050 oh         1 TCH      -0.652000
     10 C8          -3.7780    -0.9360     0.8080 c6         1 TCH      -0.033700
     11 C9          -4.5960     0.3600     0.4370 c6         1 TCH      -0.038700
     12 C10         -6.0970     0.2810     0.9630 c6         1 TCH      -0.033000
     13 C11         -3.8320     1.6530     0.9010 c6         1 TCH      -0.109400
     14 C12         -2.3530     1.7260     0.4110 c6         1 TCH       0.184300
     15 O12         -2.3390     1.9380    -1.0080 oh         1 TCH      -0.653000
     16 C13         -1.5390     0.4460     0.8360 c5         1 TCH      -0.032000
     17 C14         -2.3060    -0.8100     0.3000 c5         1 TCH      -0.061700
     18 C15         -1.3400    -1.9700     0.6450 c5         1 TCH      -0.070400
     19 C16          0.0670    -1.3580     0.3590 c5         1 TCH      -0.078400
     20 C17         -0.1630     0.1800     0.0910 c5         1 TCH      -0.047700
     21 C18         -1.3510     0.4910     2.3960 c3         1 TCH      -0.084100
     22 C19         -6.1560     0.2440     2.5350 c3         1 TCH      -0.086100
     23 O1S          9.3490    -1.3310    -1.9390 o          1 TCH      -0.692867
     24 C20          1.0960     1.0600     0.4410 c3         1 TCH      -0.052700
     25 C21          0.8520     2.5850     0.3000 c3         1 TCH      -0.085100
     26 C22          2.3480     0.6200    -0.3860 c3         1 TCH      -0.064400
     27 C23          3.6930     1.2750     0.0300 c3         1 TCH      -0.162400
     28 C24          4.8830     0.5790    -0.6400 c          1 TCH       0.587100
     29 N24          5.6400    -0.2090     0.1970 ns         1 TCH      -0.500900
     30 O24          5.1520     0.7320    -1.8240 o          1 TCH      -0.620100
     31 C25          6.8470    -0.9320    -0.1980 c3         1 TCH       0.142000
     32 C26          8.0760    -0.0180    -0.1150 c3         1 TCH      -0.380400
     33 S26          9.5900    -0.8850    -0.5600 s6         1 TCH       1.326600
     34 O2S          9.6760    -1.9690     0.4280 o          1 TCH      -0.692867
     35 O3S         10.6270     0.1480    -0.4250 o          1 TCH      -0.692867
     36 H1          -6.5170     2.4600     0.8960 hc         1 TCH       0.037200
     37 H1A         -7.9380     1.4700     1.0330 hc         1 TCH       0.037200
     38 H2          -7.8390     2.5020    -1.1960 hc         1 TCH       0.046200
     39 H2A         -6.2720     1.7750    -1.5290 hc         1 TCH       0.046200
     40 H3          -8.8980     0.2630    -0.9780 h1         1 TCH       0.020700
     41 HO3         -8.7020     1.2220    -3.0550 ho         1 TCH       0.437000
     42 H4          -7.6260    -1.8000    -1.4870 hc         1 TCH       0.060700
     43 H4A         -6.1660    -0.8650    -1.7440 hc         1 TCH       0.060700
     44 H5          -7.7610    -1.1230     0.8710 hc         1 TCH       0.035700
     45 H6          -6.0260    -2.4910     1.7990 hc         1 TCH       0.041200
     46 H6A         -6.4500    -3.1790     0.2590 hc         1 TCH       0.041200
     47 H7          -3.9740    -3.0880     0.8150 h1         1 TCH       0.028700
     48 HO7         -4.7260    -3.3130    -1.3100 ho         1 TCH       0.435000
     49 H8          -3.7250    -1.0140     1.9000 hc         1 TCH       0.043700
     50 H9          -4.6230     0.4020    -0.6590 hc         1 TCH       0.070700
     51 H11         -4.3480     2.5480     0.5340 hc         1 TCH       0.037200
     52 H11A        -3.8500     1.7380     1.9930 hc         1 TCH       0.037200
     53 H12         -1.9130     2.6030     0.9010 h1         1 TCH       0.029700
     54 HO12        -2.8560     2.7530    -1.1730 ho         1 TCH       0.435000
     55 H14         -2.4010    -0.7430    -0.7910 hc         1 TCH       0.082700
     56 H15         -1.4350    -2.2840     1.6910 hc         1 TCH       0.037200
     57 H15A        -1.5290    -2.8580     0.0320 hc         1 TCH       0.037200
     58 H16          0.7350    -1.5290     1.2110 hc         1 TCH       0.046700
     59 H16A         0.5370    -1.8420    -0.5050 hc         1 TCH       0.046700
     60 H17         -0.3060     0.3180    -0.9880 hc         1 TCH       0.069700
     61 H18         -2.2970     0.4150     2.9400 hc         1 TCH       0.032033
     62 H18A        -0.7090    -0.3140     2.7710 hc         1 TCH       0.032033
     63 H18B        -0.8800     1.4310     2.7070 hc         1 TCH       0.032033
     64 H19         -5.8010     1.1800     2.9790 hc         1 TCH       0.032033
     65 H19A        -7.1860     0.1060     2.8860 hc         1 TCH       0.032033
     66 H19B        -5.5690    -0.5670     2.9760 hc         1 TCH       0.032033
     67 H20          1.3430     0.8830     1.4960 hc         1 TCH       0.038700
     68 H21          1.7680     3.1620     0.4620 hc         1 TCH       0.029700
     69 H21A         0.4650     2.8320    -0.6960 hc         1 TCH       0.029700
     70 H21B         0.1450     2.9400     1.0540 hc         1 TCH       0.029700
     71 H22          2.4800    -0.4640    -0.2910 hc         1 TCH       0.055700
     72 H37          2.1670     0.8140    -1.4510 hc         1 TCH       0.055700
     73 H23          3.6940     2.3250    -0.2830 hc         1 TCH       0.047200
     74 H39          3.7890     1.2100     1.1210 hc         1 TCH       0.047200
     75 HN24         5.3400    -0.2660     1.1620 hn         1 TCH       0.303500
     76 H25          6.9710    -1.7940     0.4730 h1         1 TCH       0.063200
     77 H25A         6.7220    -1.3150    -1.2210 h1         1 TCH       0.063200
     78 H26          7.9790     0.8240    -0.8080 h1         1 TCH       0.066700
     79 H26A         8.2140     0.3560     0.9040 h1         1 TCH       0.066700
@<TRIPOS>BOND
     1     1     2 1   
     2     1    12 1   
     3     1    36 1   
     4     1    37 1   
     5     2     3 1   
     6     2    38 1   
     7     2    39 1   
     8     3     4 1   
     9     3     5 1   
    10     3    40 1   
    11     4    41 1   
    12     5     6 1   
    13     5    42 1   
    14     5    43 1   
    15     6     7 1   
    16     6    12 1   
    17     6    44 1   
    18     7     8 1   
    19     7    45 1   
    20     7    46 1   
    21     8     9 1   
    22     8    10 1   
    23     8    47 1   
    24     9    48 1   
    25    10    11 1   
    26    10    17 1   
    27    10    49 1   
    28    11    12 1   
    29    11    13 1   
    30    11    50 1   
    31    12    22 1   
    32    13    14 1   
    33    13    51 1   
    34    13    52 1   
    35    14    15 1   
    36    14    16 1   
    37    14    53 1   
    38    15    54 1   
    39    16    17 1   
    40    16    20 1   
    41    16    21 1   
    42    17    18 1   
    43    17    55 1   
    44    18    19 1   
    45    18    56 1   
    46    18    57 1   
    47    19    20 1   
    48    19    58 1   
    49    19    59 1   
    50    20    24 1   
    51    20    60 1   
    52    21    61 1   
    53    21    62 1   
    54    21    63 1   
    55    22    64 1   
    56    22    65 1   
    57    22    66 1   
    58    23    33 1   
    59    24    25 1   
    60    24    26 1   
    61    24    67 1   
    62    25    68 1   
    63    25    69 1   
    64    25    70 1   
    65    26    27 1   
    66    26    71 1   
    67    26    72 1   
    68    27    28 1   
    69    27    73 1   
    70    27    74 1   
    71    28    29 1   
    72    28    30 2   
    73    29    31 1   
    74    29    75 1   
    75    31    32 1   
    76    31    76 1   
    77    31    77 1   
    78    32    33 1   
    79    32    78 1   
    80    32    79 1   
    81    33    34 1   
    82    33    35 1   
@<TRIPOS>SUBSTRUCTURE
     1 TCH         1 TEMP              0 ****  ****    0 ROOT
