@<TRIPOS>MOLECULE
TCI
   53    55     1     0     0
SMALL
abcg2


@<TRIPOS>ATOM
      1 C1          -1.2570     0.6960     0.9030 ca         1 TCI      -0.179000
      2 O1           0.7570     1.8390     0.6760 os         1 TCI      -0.353100
      3 C2          -2.0550    -0.4200     0.7050 ca         1 TCI      -0.011300
      4 C3          -1.5240    -1.5230     0.0450 ca         1 TCI      -0.181000
      5 C4          -0.2010    -1.5160    -0.3760 ca         1 TCI       0.178100
      6 C5           0.6490    -0.4360    -0.1050 ca         1 TCI      -0.244300
      7 C6           0.0720     0.6930     0.4820 ca         1 TCI       0.187100
      8 C7           2.1100    -0.4300    -0.4850 c6         1 TCI       0.035800
      9 C8           2.9000    -1.6390    -0.0260 c2         1 TCI      -0.231200
     10 C9           4.2210    -1.6000     0.1600 c2         1 TCI      -0.110400
     11 C10          5.0280    -0.3480    -0.0420 c6         1 TCI      -0.043200
     12 C11          4.2150     0.8510    -0.5350 c6         1 TCI      -0.063400
     13 C12          2.8190     0.8080     0.0720 c6         1 TCI      -0.087700
     14 C13          1.9610     2.0610    -0.0840 c6         1 TCI       0.200000
     15 C14          2.6100     3.2680     0.5730 c3         1 TCI      -0.099100
     16 C15          1.6030     2.3800    -1.5320 c3         1 TCI      -0.099100
     17 C16          4.9890    -2.7970     0.6300 c3         1 TCI      -0.055900
     18 C17         -3.5050    -0.4080     1.1040 c3         1 TCI      -0.033100
     19 C18         -4.4230    -0.1020    -0.0810 c3         1 TCI      -0.074400
     20 C19         -5.8980    -0.0880     0.2960 c3         1 TCI      -0.076400
     21 C20         -6.8100     0.2220    -0.8840 c3         1 TCI      -0.074400
     22 C21         -8.2860     0.2170    -0.5100 c3         1 TCI      -0.088100
     23 H1          -1.6630     1.5870     1.3680 ha         1 TCI       0.128000
     24 HO2          1.0570    -2.4440    -1.5010 ho         1 TCI       0.469000
     25 H3          -2.1450    -2.3850    -0.1700 ha         1 TCI       0.129000
     26 H7           2.1720    -0.3780    -1.5840 hc         1 TCI       0.054700
     27 H8           2.3830    -2.5680     0.1880 ha         1 TCI       0.184000
     28 H10          5.5030    -0.1010     0.9150 hc         1 TCI       0.048200
     29 H10A         5.8540    -0.5510    -0.7290 hc         1 TCI       0.048200
     30 H11          4.7390     1.7710    -0.2720 hc         1 TCI       0.043700
     31 H11A         4.1390     0.8330    -1.6260 hc         1 TCI       0.043700
     32 H12          2.9330     0.6600     1.1540 hc         1 TCI       0.072700
     33 H14          2.9170     3.0500     1.5970 hc         1 TCI       0.046533
     34 H14A         3.4930     3.5820     0.0170 hc         1 TCI       0.046533
     35 H14B         1.9200     4.1130     0.5940 hc         1 TCI       0.046533
     36 H15          0.9440     3.2480    -1.5780 hc         1 TCI       0.046533
     37 H15A         2.5020     2.6190    -2.1000 hc         1 TCI       0.046533
     38 H15B         1.1040     1.5530    -2.0380 hc         1 TCI       0.046533
     39 H16          4.3460    -3.6660     0.7680 hc         1 TCI       0.041367
     40 H16A         5.7720    -3.0660    -0.0830 hc         1 TCI       0.041367
     41 H16B         5.4900    -2.5910     1.5790 hc         1 TCI       0.041367
     42 H17         -3.7790    -1.3780     1.5290 hc         1 TCI       0.048700
     43 H17A        -3.6670     0.3360     1.8880 hc         1 TCI       0.048700
     44 H18         -4.1420     0.8660    -0.5080 hc         1 TCI       0.042700
     45 H18A        -4.2550    -0.8460    -0.8670 hc         1 TCI       0.042700
     46 H19         -6.1730    -1.0590     0.7220 hc         1 TCI       0.037200
     47 H19A        -6.0650     0.6500     1.0890 hc         1 TCI       0.037200
     48 H20         -6.5420     1.1970    -1.3020 hc         1 TCI       0.037200
     49 H20A        -6.6320    -0.5080    -1.6790 hc         1 TCI       0.037200
     50 H21         -8.5940    -0.7600    -0.1340 hc         1 TCI       0.031367
     51 H21A        -8.4990     0.9510     0.2690 hc         1 TCI       0.031367
     52 H21B        -8.9170     0.4540    -1.3670 hc         1 TCI       0.031367
     53 O2           0.2160    -2.6070    -1.0620 oh         1 TCI      -0.546100
@<TRIPOS>BOND
     1     1     3 ar  
     2     1     7 ar  
     3     1    23 1   
     4     2     7 1   
     5     2    14 1   
     6     3     4 ar  
     7     3    18 1   
     8     4     5 ar  
     9     4    25 1   
    10     5     6 ar  
    11     5    53 1   
    12     6     7 ar  
    13     6     8 1   
    14     8     9 1   
    15     8    13 1   
    16     8    26 1   
    17     9    10 2   
    18     9    27 1   
    19    10    11 1   
    20    10    17 1   
    21    11    12 1   
    22    11    28 1   
    23    11    29 1   
    24    12    13 1   
    25    12    30 1   
    26    12    31 1   
    27    13    14 1   
    28    13    32 1   
    29    14    15 1   
    30    14    16 1   
    31    15    33 1   
    32    15    34 1   
    33    15    35 1   
    34    16    36 1   
    35    16    37 1   
    36    16    38 1   
    37    17    39 1   
    38    17    40 1   
    39    17    41 1   
    40    18    19 1   
    41    18    42 1   
    42    18    43 1   
    43    19    20 1   
    44    19    44 1   
    45    19    45 1   
    46    20    21 1   
    47    20    46 1   
    48    20    47 1   
    49    21    22 1   
    50    21    48 1   
    51    21    49 1   
    52    22    50 1   
    53    22    51 1   
    54    22    52 1   
    55    24    53 1   
@<TRIPOS>SUBSTRUCTURE
     1 TCI         1 TEMP              0 ****  ****    0 ROOT
