@<TRIPOS>MOLECULE
TCI
   53    55     1     0     0
SMALL
No Charge or Current Charge


@<TRIPOS>ATOM
      1 C1          -1.3270     0.5890     0.8500 ca         1 TCI      -0.179000
      2 O1           0.6960     1.8170     0.6180 os         1 TCI      -0.353100
      3 C2          -2.0970    -0.5670     0.6540 ca         1 TCI      -0.011300
      4 C3          -1.5040    -1.6850     0.0460 ca         1 TCI      -0.181000
      5 C4          -0.1510    -1.6650    -0.3210 ca         1 TCI       0.178100
      6 C5           0.6540    -0.5320    -0.0590 ca         1 TCI      -0.244300
      7 C6           0.0240     0.6200     0.4750 ca         1 TCI       0.187100
      8 C7           2.1560    -0.4900    -0.4150 c6         1 TCI       0.035800
      9 C8           2.9950    -1.6660     0.0860 c2         1 TCI      -0.231200
     10 C9           4.3360    -1.6060     0.1890 c2         1 TCI      -0.110400
     11 C10          5.1310    -0.3350    -0.1410 c6         1 TCI      -0.043200
     12 C11          4.2560     0.8850    -0.5510 c6         1 TCI      -0.063400
     13 C12          2.8450     0.8010     0.0970 c6         1 TCI      -0.087700
     14 C13          1.9290     2.0440    -0.0930 c6         1 TCI       0.200000
     15 C14          2.5340     3.3300     0.5390 c3         1 TCI      -0.099100
     16 C15          1.5600     2.3570    -1.5770 c3         1 TCI      -0.099100
     17 C16          5.1780    -2.7610     0.6930 c3         1 TCI      -0.055900
     18 C17         -3.5690    -0.5900     1.0450 c3         1 TCI      -0.033100
     19 C18         -4.4790    -0.0780    -0.0920 c3         1 TCI      -0.074400
     20 C19         -5.9780    -0.0900     0.2780 c3         1 TCI      -0.076400
     21 C20         -6.8860     0.4230    -0.8610 c3         1 TCI      -0.074400
     22 C21         -8.3820     0.4120    -0.4920 c3         1 TCI      -0.088100
     23 H1          -1.7820     1.4800     1.2740 ha         1 TCI       0.128000
     24 HO2          1.2560    -2.5170    -1.2710 ho         1 TCI       0.469000
     25 H3          -2.0990    -2.5710    -0.1560 ha         1 TCI       0.129000
     26 H7           2.2130    -0.5000    -1.5130 hc         1 TCI       0.054700
     27 H8           2.4700    -2.5670     0.4040 ha         1 TCI       0.184000
     28 H10          5.7150    -0.0570     0.7460 hc         1 TCI       0.048200
     29 H10A         5.8640    -0.5450    -0.9320 hc         1 TCI       0.048200
     30 H11          4.7740     1.8090    -0.2620 hc         1 TCI       0.043700
     31 H11A         4.1630     0.9130    -1.6450 hc         1 TCI       0.043700
     32 H12          2.9870     0.6940     1.1820 hc         1 TCI       0.072700
     33 H14          2.8440     3.1560     1.5760 hc         1 TCI       0.046533
     34 H14A         3.4120     3.6810    -0.0160 hc         1 TCI       0.046533
     35 H14B         1.8060     4.1500     0.5450 hc         1 TCI       0.046533
     36 H15          0.8840     3.2170    -1.6420 hc         1 TCI       0.046533
     37 H15A         2.4520     2.5990    -2.1680 hc         1 TCI       0.046533
     38 H15B         1.0590     1.5150    -2.0670 hc         1 TCI       0.046533
     39 H16          4.5650    -3.6390     0.9310 hc         1 TCI       0.041367
     40 H16A         5.9150    -3.0690    -0.0590 hc         1 TCI       0.041367
     41 H16B         5.7240    -2.4840     1.6030 hc         1 TCI       0.041367
     42 H17         -3.8700    -1.6090     1.3170 hc         1 TCI       0.048700
     43 H17A        -3.7280     0.0250     1.9390 hc         1 TCI       0.048700
     44 H18         -4.1800     0.9440    -0.3570 hc         1 TCI       0.042700
     45 H18A        -4.3220    -0.6980    -0.9830 hc         1 TCI       0.042700
     46 H19         -6.2760    -1.1120     0.5430 hc         1 TCI       0.037200
     47 H19A        -6.1340     0.5310     1.1700 hc         1 TCI       0.037200
     48 H20         -6.5930     1.4460    -1.1270 hc         1 TCI       0.037200
     49 H20A        -6.7340    -0.1960    -1.7540 hc         1 TCI       0.037200
     50 H21         -8.7150    -0.6060    -0.2540 hc         1 TCI       0.031367
     51 H21A        -8.5720     1.0520     0.3780 hc         1 TCI       0.031367
     52 H21B        -8.9850     0.7830    -1.3290 hc         1 TCI       0.031367
     53 O2           0.3510    -2.7470    -0.9770 oh         1 TCI      -0.546100
@<TRIPOS>BOND
     1     1     3 ar  
     2     1     7 ar  
     3     1    23 1   
     4     2     7 1   
     5     2    14 1   
     6     3     4 ar  
     7     3    18 1   
     8     4     5 ar  
     9     4    25 1   
    10     5     6 ar  
    11     5    53 1   
    12     6     7 ar  
    13     6     8 1   
    14     8     9 1   
    15     8    13 1   
    16     8    26 1   
    17     9    10 2   
    18     9    27 1   
    19    10    11 1   
    20    10    17 1   
    21    11    12 1   
    22    11    28 1   
    23    11    29 1   
    24    12    13 1   
    25    12    30 1   
    26    12    31 1   
    27    13    14 1   
    28    13    32 1   
    29    14    15 1   
    30    14    16 1   
    31    15    33 1   
    32    15    34 1   
    33    15    35 1   
    34    16    36 1   
    35    16    37 1   
    36    16    38 1   
    37    17    39 1   
    38    17    40 1   
    39    17    41 1   
    40    18    19 1   
    41    18    42 1   
    42    18    43 1   
    43    19    20 1   
    44    19    44 1   
    45    19    45 1   
    46    20    21 1   
    47    20    46 1   
    48    20    47 1   
    49    21    22 1   
    50    21    48 1   
    51    21    49 1   
    52    22    50 1   
    53    22    51 1   
    54    22    52 1   
    55    24    53 1   
@<TRIPOS>SUBSTRUCTURE
     1 TCI         1 TEMP              0 ****  ****    0 ROOT
