@<TRIPOS>MOLECULE
TCK
   42    42     1     0     0
SMALL
abcg2


@<TRIPOS>ATOM
      1 S           17.6370    29.0930    12.4520 sy         1 TCK       1.131600
      2 O1S         17.4110    30.4720    12.8640 o          1 TCK      -0.545000
      3 O2S         18.1400    28.1550    13.4480 o          1 TCK      -0.545000
      4 C1          18.7020    29.0530    11.0490 ca         1 TCK      -0.282500
      5 C2          19.6860    28.0820    10.9550 ca         1 TCK      -0.003500
      6 C3          20.5220    28.0790     9.8480 ca         1 TCK      -0.134500
      7 C4          20.3860    29.0280     8.8390 ca         1 TCK      -0.013300
      8 C5          19.3880    29.9970     8.9640 ca         1 TCK      -0.134500
      9 C6          18.5460    30.0170    10.0590 ca         1 TCK      -0.003500
     10 C7          21.2700    29.0010     7.6300 c3         1 TCK      -0.059800
     11 N           16.2090    28.5760    11.7810 n7         1 TCK      -0.875300
     12 CA          14.9510    28.8920    12.4620 c3         1 TCK       0.124500
     13 C           14.8800    28.1380    13.7960 c          1 TCK       0.522100
     14 O           14.7640    26.9400    13.8260 o          1 TCK      -0.476100
     15 CB          13.8010    28.5080    11.5350 c3         1 TCK      -0.068400
     16 CG          12.4290    28.9140    12.0580 c3         1 TCK      -0.078400
     17 CD          11.3230    28.5710    11.0680 c3         1 TCK      -0.077400
     18 CE           9.9470    28.9860    11.5630 c3         1 TCK       0.149800
     19 NZ           8.9180    28.6510    10.5880 n8         1 TCK      -0.996200
     20 CM          15.0340    28.9300    15.0760 c3         1 TCK       0.013600
     21 CL1         13.7810    30.2050    15.1520 cl         1 TCK      -0.249000
     22 H2          19.8120    27.3360    11.7280 ha         1 TCK       0.138000
     23 H3          21.2960    27.3250     9.7740 ha         1 TCK       0.120000
     24 H5          19.2710    30.7500     8.1940 ha         1 TCK       0.120000
     25 H6          17.7780    30.7760    10.1380 ha         1 TCK       0.138000
     26 H1          20.7700    28.4910     6.8040 hc         1 TCK       0.050700
     27 H2A         21.5100    30.0070     7.2890 hc         1 TCK       0.050700
     28 H3A         22.2010    28.4720     7.8250 hc         1 TCK       0.050700
     29 H           16.2720    27.6070    11.4760 hn         1 TCK       0.482000
     30 HA          14.9280    29.9690    12.6300 h1         1 TCK       0.107700
     31 HB2         13.9820    28.9960    10.5740 hc         1 TCK       0.058700
     32 HB3         13.8270    27.4300    11.3520 hc         1 TCK       0.058700
     33 HG2         12.2190    28.4210    13.0120 hc         1 TCK       0.045200
     34 HG3         12.4190    29.9890    12.2600 hc         1 TCK       0.045200
     35 HD2         11.5280    29.0670    10.1120 hc         1 TCK       0.047200
     36 HD3         11.3250    27.4960    10.8650 hc         1 TCK       0.047200
     37 HE2          9.7250    28.4510    12.4910 h1         1 TCK       0.027700
     38 HE3          9.9730    30.0540    11.8250 h1         1 TCK       0.027700
     39 HZ1          8.0100    28.9000    10.9570 hn         1 TCK       0.392000
     40 HZ2          9.0420    29.2250     9.7630 hn         1 TCK       0.392000
     41 HM1         14.9220    28.2870    15.9450 h1         1 TCK       0.099700
     42 HM2         16.0060    29.4230    15.1080 h1         1 TCK       0.099700
@<TRIPOS>BOND
     1     1     2 2   
     2     1     3 2   
     3     1     4 1   
     4     1    11 1   
     5     4     5 ar  
     6     4     9 ar  
     7     5     6 ar  
     8     5    22 1   
     9     6     7 ar  
    10     6    23 1   
    11     7     8 ar  
    12     7    10 1   
    13     8     9 ar  
    14     8    24 1   
    15     9    25 1   
    16    10    26 1   
    17    10    27 1   
    18    10    28 1   
    19    11    12 1   
    20    11    29 1   
    21    12    13 1   
    22    12    15 1   
    23    12    30 1   
    24    13    14 2   
    25    13    20 1   
    26    15    16 1   
    27    15    31 1   
    28    15    32 1   
    29    16    17 1   
    30    16    33 1   
    31    16    34 1   
    32    17    18 1   
    33    17    35 1   
    34    17    36 1   
    35    18    19 1   
    36    18    37 1   
    37    18    38 1   
    38    19    39 1   
    39    19    40 1   
    40    20    21 1   
    41    20    41 1   
    42    20    42 1   
@<TRIPOS>SUBSTRUCTURE
     1 TCK         1 TEMP              0 ****  ****    0 ROOT
