@<TRIPOS>MOLECULE
TCK
   42    42     1     0     0
SMALL
No Charge or Current Charge


@<TRIPOS>ATOM
      1 S           17.4740    30.5910    12.0020 sy         1 TCK       1.131600
      2 O1S         17.4930    32.0380    11.7800 o          1 TCK      -0.545000
      3 O2S         17.5480    29.9890    13.3360 o          1 TCK      -0.545000
      4 C1          18.6520    29.7760    10.9220 ca         1 TCK      -0.282500
      5 C2          19.1460    28.4950    11.2480 ca         1 TCK      -0.003500
      6 C3          20.0620    27.8580    10.3930 ca         1 TCK      -0.134500
      7 C4          20.4920    28.4880     9.2110 ca         1 TCK      -0.013300
      8 C5          19.9930    29.7640     8.8870 ca         1 TCK      -0.134500
      9 C6          19.0770    30.4080     9.7360 ca         1 TCK      -0.003500
     10 C7          21.4800    27.7940     8.2870 c3         1 TCK      -0.059800
     11 N           16.0560    30.0370    11.3080 n7         1 TCK      -0.875300
     12 CA          14.9770    29.4740    12.1800 c3         1 TCK       0.124500
     13 C           15.3550    28.1020    12.8350 c          1 TCK       0.522100
     14 O           15.9150    27.2160    12.1930 o          1 TCK      -0.476100
     15 CB          13.6830    29.3620    11.3320 c3         1 TCK      -0.068400
     16 CG          12.4270    28.9230    12.1250 c3         1 TCK      -0.078400
     17 CD          11.1470    28.8950    11.2600 c3         1 TCK      -0.077400
     18 CE           9.8990    28.4530    12.0510 c3         1 TCK       0.149800
     19 NZ           8.6960    28.4340    11.1980 n8         1 TCK      -0.996200
     20 CM          15.0180    27.9420    14.3280 c3         1 TCK       0.013600
     21 Cl1         14.6860    26.2170    14.8350 cl         1 TCK      -0.249000
     22 H2          18.8250    27.9890    12.1570 ha         1 TCK       0.138000
     23 H3          20.4360    26.8700    10.6510 ha         1 TCK       0.120000
     24 H5          20.3140    30.2580     7.9730 ha         1 TCK       0.120000
     25 H6          18.7000    31.3940     9.4670 ha         1 TCK       0.138000
     26 H1          20.9550    27.1860     7.5410 hc         1 TCK       0.050700
     27 H2A         22.1040    28.5190     7.7500 hc         1 TCK       0.050700
     28 H3A         22.1530    27.1320     8.8450 hc         1 TCK       0.050700
     29 H           16.4030    29.3170    10.6730 hn         1 TCK       0.482000
     30 HA          14.7660    30.1740    13.0020 h1         1 TCK       0.107700
     31 HB2         13.4820    30.3390    10.8740 hc         1 TCK       0.058700
     32 HB3         13.8510    28.6590    10.5060 hc         1 TCK       0.058700
     33 HG2         12.5870    27.9220    12.5450 hc         1 TCK       0.045200
     34 HG3         12.2740    29.6070    12.9690 hc         1 TCK       0.045200
     35 HD2         10.9750    29.8940    10.8400 hc         1 TCK       0.047200
     36 HD3         11.2990    28.2120    10.4150 hc         1 TCK       0.047200
     37 HE2         10.0570    27.4450    12.4590 h1         1 TCK       0.027700
     38 HE3          9.7260    29.1450    12.8880 h1         1 TCK       0.027700
     39 HZ1          7.8800    28.1950    11.7760 hn         1 TCK       0.392000
     40 HZ2          8.4950    29.3900    10.8820 hn         1 TCK       0.392000
     41 HM1         15.8600    28.3230    14.9170 h1         1 TCK       0.099700
     42 HM2         14.1250    28.5340    14.5610 h1         1 TCK       0.099700
@<TRIPOS>BOND
     1     1     2 2   
     2     1     3 2   
     3     1     4 1   
     4     1    11 1   
     5     4     5 ar  
     6     4     9 ar  
     7     5     6 ar  
     8     5    22 1   
     9     6     7 ar  
    10     6    23 1   
    11     7     8 ar  
    12     7    10 1   
    13     8     9 ar  
    14     8    24 1   
    15     9    25 1   
    16    10    26 1   
    17    10    27 1   
    18    10    28 1   
    19    11    12 1   
    20    11    29 1   
    21    12    13 1   
    22    12    15 1   
    23    12    30 1   
    24    13    14 2   
    25    13    20 1   
    26    15    16 1   
    27    15    31 1   
    28    15    32 1   
    29    16    17 1   
    30    16    33 1   
    31    16    34 1   
    32    17    18 1   
    33    17    35 1   
    34    17    36 1   
    35    18    19 1   
    36    18    37 1   
    37    18    38 1   
    38    19    39 1   
    39    19    40 1   
    40    20    21 1   
    41    20    41 1   
    42    20    42 1   
@<TRIPOS>SUBSTRUCTURE
     1 TCK         1 TEMP              0 ****  ****    0 ROOT
