@<TRIPOS>MOLECULE
TCL
   24    25     1     0     0
SMALL
No Charge or Current Charge


@<TRIPOS>ATOM
      1 C1           0.2350     1.0360     3.1250 ca         1 TCL      -0.199000
      2 C2           0.0750    -0.0540     3.9960 ca         1 TCL       0.160000
      3 C6           0.5950     0.8180     1.7840 ca         1 TCL       0.140100
      4 C5           0.7890    -0.5060     1.3160 ca         1 TCL       0.054100
      5 C4           0.6390    -1.5920     2.1970 ca         1 TCL      -0.066000
      6 C3           0.2790    -1.3650     3.5370 ca         1 TCL      -0.133000
      7 C11         -1.2240     0.3320    -3.2770 ca         1 TCL       0.091000
      8 C10          0.1690     0.2240    -3.4170 ca         1 TCL      -0.068000
      9 C9           0.9590    -0.1420    -2.3130 ca         1 TCL       0.093000
     10 C8           0.3560    -0.3940    -1.0620 ca         1 TCL       0.152100
     11 C12         -1.8330     0.0720    -2.0370 ca         1 TCL      -0.069000
     12 C13         -1.0460    -0.2940    -0.9300 ca         1 TCL      -0.166000
     13 O7           1.1450    -0.7620     0.0090 os         1 TCL      -0.216200
     14 Cl14        -0.3740     0.2260     5.6720 cl         1 TCL      -0.190000
     15 Cl16         2.7080    -0.2720    -2.5130 cl         1 TCL      -0.170000
     16 O17          0.7650     1.8930     0.9540 oh         1 TCL      -0.511100
     17 H11          0.0810     2.0430     3.5010 ha         1 TCL       0.134000
     18 H41          0.7980    -2.6060     1.8380 ha         1 TCL       0.139000
     19 H31          0.1580    -2.2040     4.2180 ha         1 TCL       0.139000
     20 H101         0.6360     0.4220    -4.3770 ha         1 TCL       0.144000
     21 H121        -2.9130     0.1520    -1.9370 ha         1 TCL       0.131000
     22 H131        -1.5280    -0.5010     0.0220 ha         1 TCL       0.130000
     23 H171         0.6020     2.7140     1.4650 ho         1 TCL       0.472000
     24 Cl15        -2.2110     0.7890    -4.6590 cl         1 TCL      -0.193000
@<TRIPOS>BOND
     1     1     2 ar  
     2     1     3 ar  
     3     1    17 1   
     4     2     6 ar  
     5     2    14 1   
     6     3     4 ar  
     7     3    16 1   
     8     4     5 ar  
     9     4    13 1   
    10     5     6 ar  
    11     5    18 1   
    12     6    19 1   
    13     7     8 ar  
    14     7    11 ar  
    15     7    24 1   
    16     8     9 ar  
    17     8    20 1   
    18     9    10 ar  
    19     9    15 1   
    20    10    12 ar  
    21    10    13 1   
    22    11    12 ar  
    23    11    21 1   
    24    12    22 1   
    25    16    23 1   
@<TRIPOS>SUBSTRUCTURE
     1 TCL         1 TEMP              0 ****  ****    0 ROOT
