@<TRIPOS>MOLECULE
TCL
   24    25     1     0     0
SMALL
bcc


@<TRIPOS>ATOM
      1 C1           0.2210     1.0080     3.1610 ca         1 TCL      -0.217000
      2 C2           0.0340    -0.1340     3.9250 ca         1 TCL       0.068400
      3 C6           0.6050     0.8850     1.8320 ca         1 TCL       0.140100
      4 C5           0.8030    -0.3910     1.2970 ca         1 TCL       0.054100
      5 C4           0.6100    -1.5160     2.0730 ca         1 TCL      -0.084000
      6 C3           0.2260    -1.4000     3.4020 ca         1 TCL      -0.151000
      7 C11         -1.2240     0.2030    -3.2230 ca         1 TCL      -0.000600
      8 C10          0.1450     0.0720    -3.3920 ca         1 TCL      -0.086000
      9 C9           0.9430    -0.1540    -2.2850 ca         1 TCL       0.001400
     10 C8           0.3890    -0.2590    -1.0100 ca         1 TCL       0.152100
     11 C12         -1.7930     0.1040    -1.9650 ca         1 TCL      -0.087000
     12 C13         -0.9850    -0.1310    -0.8630 ca         1 TCL      -0.184000
     13 O7           1.2440    -0.5190     0.0060 os         1 TCL      -0.216200
     14 CL14        -0.4430     0.0400     5.5790 cl         1 TCL      -0.098400
     15 CL16         2.6480    -0.3150    -2.4770 cl         1 TCL      -0.078400
     16 O17          0.7970     1.9320     1.0170 oh         1 TCL      -0.472100
     17 H11          0.0860     1.9880     3.6030 ha         1 TCL       0.152000
     18 H41          0.7690    -2.4950     1.6400 ha         1 TCL       0.157000
     19 H31          0.0700    -2.2820     4.0050 ha         1 TCL       0.157000
     20 H101         0.5930     0.1520    -4.3730 ha         1 TCL       0.162000
     21 H121        -2.8600     0.2050    -1.8320 ha         1 TCL       0.149000
     22 H131        -1.4450    -0.2200     0.1120 ha         1 TCL       0.148000
     23 H171         0.6510     2.7600     1.4830 ho         1 TCL       0.433000
     24 CL15        -2.2240     0.4940    -4.6030 cl         1 TCL      -0.101400
@<TRIPOS>BOND
     1     1     2 ar  
     2     1     3 ar  
     3     1    17 1   
     4     2     6 ar  
     5     2    14 1   
     6     3     4 ar  
     7     3    16 1   
     8     4     5 ar  
     9     4    13 1   
    10     5     6 ar  
    11     5    18 1   
    12     6    19 1   
    13     7     8 ar  
    14     7    11 ar  
    15     7    24 1   
    16     8     9 ar  
    17     8    20 1   
    18     9    10 ar  
    19     9    15 1   
    20    10    12 ar  
    21    10    13 1   
    22    11    12 ar  
    23    11    21 1   
    24    12    22 1   
    25    16    23 1   
@<TRIPOS>SUBSTRUCTURE
     1 TCL         1 TEMP              0 ****  ****    0 ROOT
