@<TRIPOS>MOLECULE
TCM
   27    28     1     0     0
SMALL
No Charge or Current Charge


@<TRIPOS>ATOM
      1 C1          46.0900    44.2120    13.0560 c5         1 TCM      -0.110000
      2 C2          46.9490    45.5030    13.1240 cs         1 TCM       0.314400
      3 C3          47.4320    45.5610    14.5820 c5         1 TCM      -0.138400
      4 C4          46.7540    44.3030    15.2220 c5         1 TCM      -0.066700
      5 C5          45.2300    44.6690    15.3050 c5         1 TCM      -0.079400
      6 C6          44.7670    44.5910    13.8090 c5         1 TCM      -0.072400
      7 C7          46.8010    43.2480    14.0680 c5         1 TCM      -0.044000
      8 C8          48.2460    42.8230    13.6450 c3         1 TCM      -0.080100
      9 C9          46.0540    41.9080    14.3810 c3         1 TCM      -0.080100
     10 C10         45.8930    43.6910    11.6100 c3         1 TCM      -0.065100
     11 S2          47.0970    46.7120    11.9730 s          1 TCM      -0.376400
     12 H31         48.5250    45.5130    14.6220 hc         1 TCM       0.078200
     13 H32         47.1370    46.5020    15.0580 hc         1 TCM       0.078200
     14 H4          47.1950    43.9840    16.1740 hc         1 TCM       0.073700
     15 H51         44.6780    43.9580    15.9310 hc         1 TCM       0.049200
     16 H52         45.0550    45.6580    15.7440 hc         1 TCM       0.049200
     17 H61         44.3490    45.5420    13.4570 hc         1 TCM       0.053200
     18 H62         43.9820    43.8390    13.6700 hc         1 TCM       0.053200
     19 H81         48.7790    42.3600    14.4840 hc         1 TCM       0.037700
     20 H82         48.2190    42.0890    12.8300 hc         1 TCM       0.037700
     21 H83         48.8630    43.6550    13.2890 hc         1 TCM       0.037700
     22 H91         46.5540    41.3660    15.1930 hc         1 TCM       0.037700
     23 H92         45.0110    42.0380    14.6850 hc         1 TCM       0.037700
     24 H93         46.0460    41.2480    13.5060 hc         1 TCM       0.037700
     25 H101        45.3140    42.7600    11.5990 hc         1 TCM       0.046033
     26 H102        45.3520    44.4210    10.9970 hc         1 TCM       0.046033
     27 H103        46.8550    43.4930    11.1230 hc         1 TCM       0.046033
@<TRIPOS>BOND
     1     1     2 1   
     2     1     6 1   
     3     1     7 1   
     4     1    10 1   
     5     2     3 1   
     6     2    11 2   
     7     3     4 1   
     8     3    12 1   
     9     3    13 1   
    10     4     5 1   
    11     4     7 1   
    12     4    14 1   
    13     5     6 1   
    14     5    15 1   
    15     5    16 1   
    16     6    17 1   
    17     6    18 1   
    18     7     8 1   
    19     7     9 1   
    20     8    19 1   
    21     8    20 1   
    22     8    21 1   
    23     9    22 1   
    24     9    23 1   
    25     9    24 1   
    26    10    25 1   
    27    10    26 1   
    28    10    27 1   
@<TRIPOS>SUBSTRUCTURE
     1 TCM         1 TEMP              0 ****  ****    0 ROOT
