@<TRIPOS>MOLECULE
TCM
   27    28     1     0     0
SMALL
abcg2


@<TRIPOS>ATOM
      1 C1          46.0970    44.2010    13.0410 c5         1 TCM      -0.110000
      2 C2          46.9390    45.4410    13.1430 cs         1 TCM       0.314400
      3 C3          47.3940    45.5350    14.5760 c5         1 TCM      -0.138400
      4 C4          46.7410    44.3050    15.2150 c5         1 TCM      -0.066700
      5 C5          45.2420    44.6160    15.3050 c5         1 TCM      -0.079400
      6 C6          44.8070    44.5970    13.8220 c5         1 TCM      -0.072400
      7 C7          46.8130    43.2710    14.0690 c5         1 TCM      -0.044000
      8 C8          48.2340    42.8950    13.6510 c3         1 TCM      -0.080100
      9 C9          46.0600    41.9740    14.3500 c3         1 TCM      -0.080100
     10 C10         45.8470    43.6720    11.6520 c3         1 TCM      -0.065100
     11 S2          47.2850    46.4940    11.9590 s          1 TCM      -0.376400
     12 H31         48.4850    45.5110    14.6200 hc         1 TCM       0.078200
     13 H32         47.0900    46.4820    15.0280 hc         1 TCM       0.078200
     14 H4          47.2010    43.9970    16.1540 hc         1 TCM       0.073700
     15 H51         44.7040    43.8680    15.8890 hc         1 TCM       0.049200
     16 H52         45.0600    45.5800    15.7810 hc         1 TCM       0.049200
     17 H61         44.4060    45.5520    13.4780 hc         1 TCM       0.053200
     18 H62         44.0370    43.8480    13.6310 hc         1 TCM       0.053200
     19 H81         48.7370    42.3640    14.4620 hc         1 TCM       0.037700
     20 H82         48.2120    42.2260    12.7890 hc         1 TCM       0.037700
     21 H83         48.8590    43.7440    13.3770 hc         1 TCM       0.037700
     22 H91         46.5310    41.4450    15.1810 hc         1 TCM       0.037700
     23 H92         45.0110    42.1130    14.6050 hc         1 TCM       0.037700
     24 H93         46.1000    41.3140    13.4820 hc         1 TCM       0.037700
     25 H101        45.2380    42.7680    11.6910 hc         1 TCM       0.046033
     26 H102        45.3180    44.4040    11.0420 hc         1 TCM       0.046033
     27 H103        46.7810    43.4310    11.1420 hc         1 TCM       0.046033
@<TRIPOS>BOND
     1     1     2 1   
     2     1     6 1   
     3     1     7 1   
     4     1    10 1   
     5     2     3 1   
     6     2    11 2   
     7     3     4 1   
     8     3    12 1   
     9     3    13 1   
    10     4     5 1   
    11     4     7 1   
    12     4    14 1   
    13     5     6 1   
    14     5    15 1   
    15     5    16 1   
    16     6    17 1   
    17     6    18 1   
    18     7     8 1   
    19     7     9 1   
    20     8    19 1   
    21     8    20 1   
    22     8    21 1   
    23     9    22 1   
    24     9    23 1   
    25     9    24 1   
    26    10    25 1   
    27    10    26 1   
    28    10    27 1   
@<TRIPOS>SUBSTRUCTURE
     1 TCM         1 TEMP              0 ****  ****    0 ROOT
