@<TRIPOS>MOLECULE
TCO
   40    40     1     0     0
SMALL
No Charge or Current Charge


@<TRIPOS>ATOM
      1 N           -0.8740    -0.5350     0.3400 ns         1 TCO      -0.490900
      2 CA          -1.3460    -0.0820    -0.9910 c3         1 TCO       0.007700
      3 C           -2.7260    -0.7190    -1.3030 c          1 TCO       0.556900
      4 O           -3.1500    -1.7420    -0.7690 o          1 TCO      -0.502100
      5 CG2         -0.7770     0.2320    -3.5010 c6         1 TCO      -0.072400
      6 CD2          0.2670     0.0020    -4.6220 c6         1 TCO      -0.074400
      7 CE           1.6300     0.6330    -4.2580 c6         1 TCO      -0.075400
      8 CD1          2.1420     0.0890    -2.9040 c6         1 TCO      -0.074400
      9 CG1          1.1050     0.3170    -1.7770 c6         1 TCO      -0.072400
     10 CB          -0.2820    -0.3070    -2.1240 c6         1 TCO      -0.062700
     11 C1          -0.2990     0.2610     1.2900 c          1 TCO       0.654100
     12 O1          -0.1260     1.4640     1.1770 o          1 TCO      -0.552000
     13 O2           0.0280    -0.5270     2.3590 os         1 TCO      -0.475100
     14 C4           0.8570    -1.2370     4.4550 c3         1 TCO      -0.109100
     15 C3           0.6810    -0.0050     3.5400 c3         1 TCO       0.226000
     16 C6          -0.2380     1.0370     4.2280 c3         1 TCO      -0.109100
     17 C5           2.0700     0.5690     3.1550 c3         1 TCO      -0.109100
     18 HN          -0.9730    -1.5110     0.5900 hn         1 TCO       0.328500
     19 HA          -1.5350     0.9990    -0.9340 h1         1 TCO       0.090700
     20 HC          -3.3430    -0.1720    -2.0490 h4         1 TCO      -0.007800
     21 HG21        -1.7150    -0.2590    -3.7940 hc         1 TCO       0.043950
     22 HG22        -0.9990     1.3060    -3.4230 hc         1 TCO       0.043950
     23 HD21         0.3920    -1.0760    -4.7970 hc         1 TCO       0.041200
     24 HD22        -0.1000     0.4300    -5.5660 hc         1 TCO       0.041200
     25 HE1          2.3630     0.4210    -5.0480 hc         1 TCO       0.041200
     26 HE2          1.5320     1.7260    -4.2060 hc         1 TCO       0.041200
     27 HD11         2.3600    -0.9840    -2.9950 hc         1 TCO       0.041200
     28 HD12         3.0910     0.5780    -2.6420 hc         1 TCO       0.041200
     29 HG11         0.9940     1.3950    -1.5940 hc         1 TCO       0.043950
     30 HG12         1.5010    -0.1170    -0.8500 hc         1 TCO       0.043950
     31 HB          -0.1520    -1.3960    -2.2080 hc         1 TCO       0.052700
     32 H41          1.3500    -0.9600     5.3940 hc         1 TCO       0.049367
     33 H42         -0.1150    -1.6820     4.7000 hc         1 TCO       0.049367
     34 H43          1.4690    -2.0040     3.9630 hc         1 TCO       0.049367
     35 H61         -1.2590     0.6500     4.3290 hc         1 TCO       0.049367
     36 H62          0.1360     1.2700     5.2330 hc         1 TCO       0.049367
     37 H63         -0.2780     1.9800     3.6720 hc         1 TCO       0.049367
     38 H51          2.6220    -0.1390     2.5260 hc         1 TCO       0.049367
     39 H52          1.9860     1.5190     2.6160 hc         1 TCO       0.049367
     40 H53          2.6670     0.7590     4.0550 hc         1 TCO       0.049367
@<TRIPOS>BOND
     1     1     2 1   
     2     1    11 1   
     3     1    18 1   
     4     2     3 1   
     5     2    10 1   
     6     2    19 1   
     7     3     4 2   
     8     3    20 1   
     9     5     6 1   
    10     5    10 1   
    11     5    21 1   
    12     5    22 1   
    13     6     7 1   
    14     6    23 1   
    15     6    24 1   
    16     7     8 1   
    17     7    25 1   
    18     7    26 1   
    19     8     9 1   
    20     8    27 1   
    21     8    28 1   
    22     9    10 1   
    23     9    29 1   
    24     9    30 1   
    25    10    31 1   
    26    11    12 2   
    27    11    13 1   
    28    13    15 1   
    29    14    15 1   
    30    14    32 1   
    31    14    33 1   
    32    14    34 1   
    33    15    16 1   
    34    15    17 1   
    35    16    35 1   
    36    16    36 1   
    37    16    37 1   
    38    17    38 1   
    39    17    39 1   
    40    17    40 1   
@<TRIPOS>SUBSTRUCTURE
     1 TCO         1 TEMP              0 ****  ****    0 ROOT
