@<TRIPOS>MOLECULE
TCO
   40    40     1     0     0
SMALL
abcg2


@<TRIPOS>ATOM
      1 N           -0.0250    -0.1750     0.2290 ns         1 TCO      -0.490900
      2 CA          -0.6510     0.4030    -0.9270 c3         1 TCO       0.007700
      3 C           -2.1580     0.2610    -0.8700 c          1 TCO       0.556900
      4 O           -2.7380    -0.4500    -0.0910 o          1 TCO      -0.502100
      5 CG2         -0.7580     0.3160    -3.4760 c6         1 TCO      -0.072400
      6 CD2         -0.1330    -0.2520    -4.7470 c6         1 TCO      -0.074400
      7 CE           1.3660     0.0140    -4.8070 c6         1 TCO      -0.075400
      8 CD1          2.0550    -0.5260    -3.5610 c6         1 TCO      -0.074400
      9 CG1          1.4400     0.0490    -2.2900 c6         1 TCO      -0.072400
     10 CB          -0.0680    -0.2140    -2.2160 c6         1 TCO      -0.062700
     11 C1          -0.1300     0.4070     1.4440 c          1 TCO       0.654100
     12 O1          -0.6260     1.5010     1.6230 o          1 TCO      -0.552000
     13 O2           0.4010    -0.3760     2.3800 os         1 TCO      -0.475100
     14 C4           1.1910    -1.1730     4.4210 c3         1 TCO      -0.109100
     15 C3           0.5090     0.0250     3.7720 c3         1 TCO       0.226000
     16 C6          -0.8670     0.2340     4.3920 c3         1 TCO      -0.109100
     17 C5           1.3910     1.2590     3.9150 c3         1 TCO      -0.109100
     18 HN           0.2900    -1.1310     0.1750 hn         1 TCO       0.328500
     19 HA          -0.4460     1.4800    -0.9580 h1         1 TCO       0.090700
     20 HC          -2.7110     0.8790    -1.5960 h4         1 TCO      -0.007800
     21 HG21        -1.8230     0.0770    -3.4720 hc         1 TCO       0.043950
     22 HG22        -0.6830     1.4090    -3.4920 hc         1 TCO       0.043950
     23 HD21        -0.3100    -1.3320    -4.7870 hc         1 TCO       0.041200
     24 HD22        -0.6320     0.1750    -5.6190 hc         1 TCO       0.041200
     25 HE1          1.7950    -0.4380    -5.7050 hc         1 TCO       0.041200
     26 HE2          1.5420     1.0920    -4.8860 hc         1 TCO       0.041200
     27 HD11         1.9660    -1.6180    -3.5430 hc         1 TCO       0.041200
     28 HD12         3.1240    -0.3030    -3.5850 hc         1 TCO       0.041200
     29 HG11         1.6070     1.1320    -2.2590 hc         1 TCO       0.043950
     30 HG12         1.9440    -0.3680    -1.4160 hc         1 TCO       0.043950
     31 HB          -0.2310    -1.3000    -2.1680 hc         1 TCO       0.052700
     32 H41          1.3440    -0.9820     5.4830 hc         1 TCO       0.049367
     33 H42          0.5830    -2.0750     4.3290 hc         1 TCO       0.049367
     34 H43          2.1660    -1.3670     3.9720 hc         1 TCO       0.049367
     35 H61         -1.5000    -0.6420     4.2440 hc         1 TCO       0.049367
     36 H62         -0.7550     0.3810     5.4670 hc         1 TCO       0.049367
     37 H63         -1.3780     1.1060     3.9900 hc         1 TCO       0.049367
     38 H51          2.3590     1.1050     3.4350 hc         1 TCO       0.049367
     39 H52          0.9300     2.1510     3.4960 hc         1 TCO       0.049367
     40 H53          1.5750     1.4470     4.9730 hc         1 TCO       0.049367
@<TRIPOS>BOND
     1     1     2 1   
     2     1    11 1   
     3     1    18 1   
     4     2     3 1   
     5     2    10 1   
     6     2    19 1   
     7     3     4 2   
     8     3    20 1   
     9     5     6 1   
    10     5    10 1   
    11     5    21 1   
    12     5    22 1   
    13     6     7 1   
    14     6    23 1   
    15     6    24 1   
    16     7     8 1   
    17     7    25 1   
    18     7    26 1   
    19     8     9 1   
    20     8    27 1   
    21     8    28 1   
    22     9    10 1   
    23     9    29 1   
    24     9    30 1   
    25    10    31 1   
    26    11    12 2   
    27    11    13 1   
    28    13    15 1   
    29    14    15 1   
    30    14    32 1   
    31    14    33 1   
    32    14    34 1   
    33    15    16 1   
    34    15    17 1   
    35    16    35 1   
    36    16    36 1   
    37    16    37 1   
    38    17    38 1   
    39    17    39 1   
    40    17    40 1   
@<TRIPOS>SUBSTRUCTURE
     1 TCO         1 TEMP              0 ****  ****    0 ROOT
