@<TRIPOS>MOLECULE
TCR
   27    29     1     0     0
SMALL
No Charge or Current Charge


@<TRIPOS>ATOM
      1 N           -2.1230     1.4000     0.3150 n7         1 TCR      -0.854400
      2 CA          -2.2190     0.0040    -0.2720 c6         1 TCR       0.031500
      3 CB          -0.9810    -0.8580     0.1230 c6         1 TCR       0.015800
      4 CG           0.2970    -0.0610     0.0000 cc         1 TCR      -0.104400
      5 CD2          1.6730    -0.4640     0.0380 ca         1 TCR      -0.085800
      6 CE2          2.4380     0.6640    -0.0770 ca         1 TCR      -0.052200
      7 CE3          2.2420    -1.7390     0.1660 ca         1 TCR      -0.052000
      8 CD1          0.3060     1.3250    -0.1280 cd         1 TCR      -0.073300
      9 NE1          1.6410     1.7910    -0.1860 na         1 TCR      -0.230700
     10 CZ2          3.8380     0.5990    -0.0740 ca         1 TCR      -0.141000
     11 CZ3          3.6500    -1.8330     0.1720 ca         1 TCR      -0.163000
     12 CH2          4.4450    -0.6690     0.0520 ca         1 TCR      -0.110000
     13 C9          -0.9600     2.1600    -0.2050 c6         1 TCR       0.229000
     14 C           -3.5590    -0.7920     0.0320 c          1 TCR       0.725000
     15 OXT         -4.1640    -1.2240    -0.9420 o          1 TCR      -0.729000
     16 O1          -4.1520    -0.5350     1.0740 o          1 TCR      -0.729000
     17 HN          -2.9820     1.9210     0.0970 hn         1 TCR       0.443000
     18 HA          -2.1890     0.1250    -1.3660 h1         1 TCR       0.004700
     19 HB1         -1.0980    -1.2130     1.1560 hc         1 TCR       0.057200
     20 HB2         -0.9420    -1.7570    -0.5080 hc         1 TCR       0.057200
     21 HE3          1.6190    -2.6250     0.2570 ha         1 TCR       0.116000
     22 HNE          1.9480     2.7530    -0.2830 hn         1 TCR       0.335000
     23 HZ2          4.4420     1.4990    -0.1660 ha         1 TCR       0.097000
     24 HZ3          4.1260    -2.8070     0.2690 ha         1 TCR       0.096000
     25 HH2          5.5300    -0.7510     0.0580 ha         1 TCR       0.092000
     26 H91         -1.1500     2.4370    -1.2520 h1         1 TCR       0.014700
     27 H92         -0.8440     3.0890     0.3720 h1         1 TCR       0.014700
@<TRIPOS>BOND
     1     1     2 1   
     2     1    13 1   
     3     1    17 1   
     4     2     3 1   
     5     2    14 1   
     6     2    18 1   
     7     3     4 1   
     8     3    19 1   
     9     3    20 1   
    10     4     5 1   
    11     4     8 2   
    12     5     6 ar  
    13     5     7 ar  
    14     6     9 1   
    15     6    10 ar  
    16     7    11 ar  
    17     7    21 1   
    18     8     9 1   
    19     8    13 1   
    20     9    22 1   
    21    10    12 ar  
    22    10    23 1   
    23    11    12 ar  
    24    11    24 1   
    25    12    25 1   
    26    13    26 1   
    27    13    27 1   
    28    14    15 1   
    29    14    16 1   
@<TRIPOS>SUBSTRUCTURE
     1 TCR         1 TEMP              0 ****  ****    0 ROOT
