@<TRIPOS>MOLECULE
TCR
   27    29     1     0     0
SMALL
abcg2


@<TRIPOS>ATOM
      1 N           -2.0550     1.3160     0.3870 n7         1 TCR      -0.854400
      2 CA          -2.1670     0.0420    -0.3060 c6         1 TCR       0.031500
      3 CB          -1.0160    -0.8660     0.1300 c6         1 TCR       0.015800
      4 CG           0.2580    -0.0880     0.0630 cc         1 TCR      -0.104400
      5 CD2          1.6250    -0.5120     0.0540 ca         1 TCR      -0.085800
      6 CE2          2.4140     0.6570    -0.0740 ca         1 TCR      -0.052200
      7 CE3          2.2630    -1.7540     0.1390 ca         1 TCR      -0.052000
      8 CD1          0.2730     1.2710    -0.0510 cd         1 TCR      -0.073300
      9 NE1          1.5610     1.7240    -0.1380 na         1 TCR      -0.230700
     10 CZ2          3.8050     0.6100    -0.1190 ca         1 TCR      -0.141000
     11 CZ3          3.6440    -1.8050     0.0940 ca         1 TCR      -0.163000
     12 CH2          4.4070    -0.6340    -0.0330 ca         1 TCR      -0.110000
     13 C9          -0.9500     2.1200    -0.0950 c6         1 TCR       0.229000
     14 C           -3.5580    -0.5890    -0.0870 c          1 TCR       0.725000
     15 OXT         -3.6420    -1.8210    -0.2530 o          1 TCR      -0.729000
     16 O1          -4.4920     0.1890     0.1950 o          1 TCR      -0.729000
     17 HN          -2.9260     1.8190     0.2850 hn         1 TCR       0.443000
     18 HA          -2.0670     0.1810    -1.4010 h1         1 TCR       0.004700
     19 HB1         -1.1960    -1.2420     1.1430 hc         1 TCR       0.057200
     20 HB2         -0.9730    -1.7420    -0.5210 hc         1 TCR       0.057200
     21 HE3          1.6830    -2.6640     0.2400 ha         1 TCR       0.116000
     22 HNE          1.8360     2.6880    -0.2240 hn         1 TCR       0.335000
     23 HZ2          4.3970     1.5100    -0.2180 ha         1 TCR       0.097000
     24 HZ3          4.1490    -2.7610     0.1590 ha         1 TCR       0.096000
     25 HH2          5.4870    -0.7040    -0.0650 ha         1 TCR       0.092000
     26 H91         -1.0960     2.4930    -1.1240 h1         1 TCR       0.014700
     27 H92         -0.8330     3.0020     0.5410 h1         1 TCR       0.014700
@<TRIPOS>BOND
     1     1     2 1   
     2     1    13 1   
     3     1    17 1   
     4     2     3 1   
     5     2    14 1   
     6     2    18 1   
     7     3     4 1   
     8     3    19 1   
     9     3    20 1   
    10     4     5 1   
    11     4     8 2   
    12     5     6 ar  
    13     5     7 ar  
    14     6     9 1   
    15     6    10 ar  
    16     7    11 ar  
    17     7    21 1   
    18     8     9 1   
    19     8    13 1   
    20     9    22 1   
    21    10    12 ar  
    22    10    23 1   
    23    11    12 ar  
    24    11    24 1   
    25    12    25 1   
    26    13    26 1   
    27    13    27 1   
    28    14    15 1   
    29    14    16 1   
@<TRIPOS>SUBSTRUCTURE
     1 TCR         1 TEMP              0 ****  ****    0 ROOT
