@<TRIPOS>MOLECULE
TCT
   31    33     1     0     0
SMALL
No Charge or Current Charge


@<TRIPOS>ATOM
      1 C16         -0.0650     1.4830     1.9440 ca         1 TCT      -0.087000
      2 C15         -0.4260     0.9860     0.6790 ca         1 TCT      -0.133000
      3 C14         -0.6610    -0.3920     0.5040 ca         1 TCT       0.103100
      4 C13         -0.5550    -1.2670     1.5970 ca         1 TCT      -0.108000
      5 C12         -0.1940    -0.7740     2.8650 ca         1 TCT      -0.051000
      6 C11          0.0540     0.6060     3.0390 ca         1 TCT      -0.014000
      7 C10          0.4150     1.0980     4.3070 ca         1 TCT      -0.143000
      8 C9           0.5290     0.2210     5.3960 ca         1 TCT       0.135100
      9 O3           0.8790     0.7070     6.6200 oh         1 TCT      -0.534100
     10 C8           0.2830    -1.1510     5.2270 ca         1 TCT      -0.182000
     11 C7          -0.0790    -1.6500     3.9620 ca         1 TCT      -0.060000
     12 O2          -1.0270    -0.9010    -0.7230 os         1 TCT      -0.232200
     13 C3          -0.5080    -0.4330    -1.9140 ca         1 TCT       0.076100
     14 C4           0.8620    -0.1160    -2.0190 ca         1 TCT      -0.104000
     15 C5           1.3850     0.3470    -3.2390 ca         1 TCT      -0.123000
     16 C6           0.5450     0.4870    -4.3550 ca         1 TCT       0.148000
     17 Cl1          1.2030     1.0650    -5.8790 cl         1 TCT      -0.198000
     18 C1          -0.8180     0.1620    -4.2620 ca         1 TCT      -0.193000
     19 C2          -1.3480    -0.3020    -3.0460 ca         1 TCT       0.140100
     20 O1          -2.6780    -0.6170    -2.9690 oh         1 TCT      -0.507100
     21 H16C         0.1180     2.5470     2.0720 ha         1 TCT       0.118000
     22 H15C        -0.5270     1.6720    -0.1580 ha         1 TCT       0.126000
     23 H13C        -0.7500    -2.3270     1.4540 ha         1 TCT       0.129000
     24 H10C         0.6070     2.1580     4.4490 ha         1 TCT       0.130000
     25 HO3          0.9090    -0.0420     7.2540 ho         1 TCT       0.465000
     26 HC8          0.3690    -1.8360     6.0670 ha         1 TCT       0.113000
     27 HC7         -0.2680    -2.7140     3.8360 ha         1 TCT       0.117000
     28 HC4          1.5200    -0.2330    -1.1610 ha         1 TCT       0.135000
     29 HC5          2.4410     0.5940    -3.3210 ha         1 TCT       0.135000
     30 HC1         -1.4520     0.2710    -5.1380 ha         1 TCT       0.132000
     31 HO1         -3.0890    -0.4640    -3.8460 ho         1 TCT       0.466000
@<TRIPOS>BOND
     1     1     2 ar  
     2     1     6 ar  
     3     1    21 1   
     4     2     3 ar  
     5     2    22 1   
     6     3     4 ar  
     7     3    12 1   
     8     4     5 ar  
     9     4    23 1   
    10     5     6 ar  
    11     5    11 ar  
    12     6     7 ar  
    13     7     8 ar  
    14     7    24 1   
    15     8     9 1   
    16     8    10 ar  
    17     9    25 1   
    18    10    11 ar  
    19    10    26 1   
    20    11    27 1   
    21    12    13 1   
    22    13    14 ar  
    23    13    19 ar  
    24    14    15 ar  
    25    14    28 1   
    26    15    16 ar  
    27    15    29 1   
    28    16    17 1   
    29    16    18 ar  
    30    18    19 ar  
    31    18    30 1   
    32    19    20 1   
    33    20    31 1   
@<TRIPOS>SUBSTRUCTURE
     1 TCT         1 TEMP              0 ****  ****    0 ROOT
