@<TRIPOS>MOLECULE
TCT
   31    33     1     0     0
SMALL
abcg2


@<TRIPOS>ATOM
      1 C16         -0.2410     1.4380     1.8530 ca         1 TCT      -0.087000
      2 C15         -0.5430     0.9200     0.6260 ca         1 TCT      -0.133000
      3 C14         -0.6500    -0.4790     0.4600 ca         1 TCT       0.103100
      4 C13         -0.4520    -1.3250     1.5140 ca         1 TCT      -0.108000
      5 C12         -0.1490    -0.8040     2.7930 ca         1 TCT      -0.051000
      6 C11         -0.0340     0.5980     2.9740 ca         1 TCT      -0.014000
      7 C10          0.2740     1.1200     4.2480 ca         1 TCT      -0.143000
      8 C9           0.4680     0.2790     5.3150 ca         1 TCT       0.135100
      9 O3           0.7590     0.8130     6.5180 oh         1 TCT      -0.534100
     10 C8           0.3580    -1.1200     5.1380 ca         1 TCT      -0.182000
     11 C7           0.0590    -1.6420     3.9110 ca         1 TCT      -0.060000
     12 O2          -1.0090    -1.0170    -0.7480 os         1 TCT      -0.232200
     13 C3          -0.4510    -0.4980    -1.8810 ca         1 TCT       0.076100
     14 C4           0.9160    -0.3390    -2.0270 ca         1 TCT      -0.104000
     15 C5           1.4510     0.1510    -3.2110 ca         1 TCT      -0.123000
     16 C6           0.5870     0.4730    -4.2420 ca         1 TCT       0.148000
     17 CL1          1.2260     1.0840    -5.7330 cl         1 TCT      -0.198000
     18 C1          -0.7850     0.3190    -4.1180 ca         1 TCT      -0.193000
     19 C2          -1.3160    -0.1620    -2.9270 ca         1 TCT       0.140100
     20 O1          -2.6310    -0.3290    -2.7220 oh         1 TCT      -0.507100
     21 H16C        -0.1660     2.5110     1.9770 ha         1 TCT       0.118000
     22 H15C        -0.7060     1.5840    -0.2140 ha         1 TCT       0.126000
     23 H13C        -0.5330    -2.3970     1.3770 ha         1 TCT       0.129000
     24 H10C         0.3560     2.1930     4.3800 ha         1 TCT       0.130000
     25 HO3          0.8690     0.1200     7.1780 ho         1 TCT       0.465000
     26 HC8          0.5130    -1.7820     5.9830 ha         1 TCT       0.113000
     27 HC7         -0.0210    -2.7160     3.7910 ha         1 TCT       0.117000
     28 HC4          1.5790    -0.6050    -1.2130 ha         1 TCT       0.135000
     29 HC5          2.5190     0.2710    -3.3190 ha         1 TCT       0.135000
     30 HC1         -1.4440     0.5830    -4.9370 ha         1 TCT       0.132000
     31 HO1         -3.1300    -0.0580    -3.5020 ho         1 TCT       0.466000
@<TRIPOS>BOND
     1     1     2 ar  
     2     1     6 ar  
     3     1    21 1   
     4     2     3 ar  
     5     2    22 1   
     6     3     4 ar  
     7     3    12 1   
     8     4     5 ar  
     9     4    23 1   
    10     5     6 ar  
    11     5    11 ar  
    12     6     7 ar  
    13     7     8 ar  
    14     7    24 1   
    15     8     9 1   
    16     8    10 ar  
    17     9    25 1   
    18    10    11 ar  
    19    10    26 1   
    20    11    27 1   
    21    12    13 1   
    22    13    14 ar  
    23    13    19 ar  
    24    14    15 ar  
    25    14    28 1   
    26    15    16 ar  
    27    15    29 1   
    28    16    17 1   
    29    16    18 ar  
    30    18    19 ar  
    31    18    30 1   
    32    19    20 1   
    33    20    31 1   
@<TRIPOS>SUBSTRUCTURE
     1 TCT         1 TEMP              0 ****  ****    0 ROOT
