@<TRIPOS>MOLECULE
TCU
   45    46     1     0     0
SMALL
abcg2


@<TRIPOS>ATOM
      1 O17         -1.5040    -0.4900     1.8400 oh         1 TCU      -0.514100
      2 C6          -0.7420    -0.1700     0.7790 ca         1 TCU       0.126100
      3 C1           0.5460     0.3420     0.8860 ca         1 TCU      -0.198000
      4 C2           1.2910     0.6660    -0.2450 ca         1 TCU      -0.035300
      5 C16          2.6920     1.1900    -0.1040 c3         1 TCU      -0.034100
      6 C17          3.7440     0.0800    -0.1010 c3         1 TCU      -0.072400
      7 C18          5.1590     0.6270     0.0280 c3         1 TCU      -0.076400
      8 C19          6.2310    -0.4540     0.0210 c3         1 TCU      -0.075400
      9 C20          7.6440     0.1060     0.1430 c3         1 TCU      -0.075400
     10 C21          8.7150    -0.9750     0.1340 c3         1 TCU      -0.088100
     11 C3           0.7280     0.4620    -1.5010 ca         1 TCU      -0.138000
     12 C4          -0.5600    -0.0440    -1.6190 ca         1 TCU      -0.079000
     13 C5          -1.2920    -0.3600    -0.4900 ca         1 TCU       0.060100
     14 O7          -2.5460    -0.9000    -0.6060 os         1 TCU      -0.240200
     15 C8          -3.6290    -0.1180    -0.3270 ca         1 TCU       0.140100
     16 C9          -3.5690     1.2680    -0.2840 ca         1 TCU      -0.175000
     17 C10         -4.7220     1.9980    -0.0190 ca         1 TCU      -0.085000
     18 C11         -5.9250     1.3470     0.1990 ca         1 TCU      -0.139000
     19 C12         -5.9670    -0.0410     0.1490 ca         1 TCU      -0.086000
     20 C13         -4.8310    -0.7990    -0.1100 ca         1 TCU      -0.094300
     21 C14         -4.8810    -2.2980    -0.1450 c3         1 TCU      -0.034800
     22 H17         -1.0170    -0.3340     2.6580 ho         1 TCU       0.464000
     23 H1           0.9740     0.4980     1.8710 ha         1 TCU       0.115000
     24 H161         2.9050     1.8830    -0.9240 hc         1 TCU       0.047700
     25 H162         2.7790     1.7690     0.8200 hc         1 TCU       0.047700
     26 H3           1.2880     0.7090    -2.3940 ha         1 TCU       0.119000
     27 H171         3.5410    -0.6130     0.7220 hc         1 TCU       0.043700
     28 H172         3.6580    -0.5050    -1.0230 hc         1 TCU       0.043700
     29 H181         5.3470     1.3310    -0.7910 hc         1 TCU       0.036700
     30 H182         5.2380     1.2130     0.9510 hc         1 TCU       0.036700
     31 H191         6.0500    -1.1560     0.8420 hc         1 TCU       0.038200
     32 H192         6.1530    -1.0410    -0.9010 hc         1 TCU       0.038200
     33 H201         7.8240     0.8090    -0.6770 hc         1 TCU       0.036700
     34 H202         7.7210     0.6920     1.0640 hc         1 TCU       0.036700
     35 H211         9.7160    -0.5490     0.2110 hc         1 TCU       0.032033
     36 H212         8.5850    -1.6670     0.9680 hc         1 TCU       0.032033
     37 H213         8.6760    -1.5610    -0.7870 hc         1 TCU       0.032033
     38 H4          -1.0020    -0.1980    -2.5960 ha         1 TCU       0.131000
     39 H9          -2.6360     1.7880    -0.4580 ha         1 TCU       0.121000
     40 H10         -4.6680     3.0780     0.0140 ha         1 TCU       0.110000
     41 H11         -6.8250     1.9110     0.4090 ha         1 TCU       0.113000
     42 H12         -6.9050    -0.5550     0.3250 ha         1 TCU       0.111000
     43 H141        -4.1970    -2.7400     0.5810 hc         1 TCU       0.043033
     44 H142        -5.8850    -2.6520     0.0870 hc         1 TCU       0.043033
     45 H143        -4.6080    -2.6940    -1.1250 hc         1 TCU       0.043033
@<TRIPOS>BOND
     1     1     2 1   
     2     1    22 1   
     3     2     3 ar  
     4     2    13 ar  
     5     3     4 ar  
     6     3    23 1   
     7     4     5 1   
     8     4    11 ar  
     9     5     6 1   
    10     5    24 1   
    11     5    25 1   
    12     6     7 1   
    13     6    27 1   
    14     6    28 1   
    15     7     8 1   
    16     7    29 1   
    17     7    30 1   
    18     8     9 1   
    19     8    31 1   
    20     8    32 1   
    21     9    10 1   
    22     9    33 1   
    23     9    34 1   
    24    10    35 1   
    25    10    36 1   
    26    10    37 1   
    27    11    12 ar  
    28    11    26 1   
    29    12    13 ar  
    30    12    38 1   
    31    13    14 1   
    32    14    15 1   
    33    15    16 ar  
    34    15    20 ar  
    35    16    17 ar  
    36    16    39 1   
    37    17    18 ar  
    38    17    40 1   
    39    18    19 ar  
    40    18    41 1   
    41    19    20 ar  
    42    19    42 1   
    43    20    21 1   
    44    21    43 1   
    45    21    44 1   
    46    21    45 1   
@<TRIPOS>SUBSTRUCTURE
     1 TCU         1 TEMP              0 ****  ****    0 ROOT
