@<TRIPOS>MOLECULE
TCU
   45    46     1     0     0
SMALL
No Charge or Current Charge


@<TRIPOS>ATOM
      1 O17         -1.4650    -0.3800     1.8180 oh         1 TCU      -0.514100
      2 C6          -0.7550    -0.0900     0.6840 ca         1 TCU       0.126100
      3 C1           0.5490     0.4190     0.8050 ca         1 TCU      -0.198000
      4 C2           1.3120     0.7110    -0.3420 ca         1 TCU      -0.035300
      5 C16          2.7270     1.2570    -0.2050 c3         1 TCU      -0.034100
      6 C17          3.7790     0.1300    -0.1400 c3         1 TCU      -0.072400
      7 C18          5.2250     0.6560    -0.0010 c3         1 TCU      -0.076400
      8 C19          6.2760    -0.4740     0.0640 c3         1 TCU      -0.075400
      9 C20          7.7210     0.0520     0.2020 c3         1 TCU      -0.075400
     10 C21          8.7700    -1.0750     0.2670 c3         1 TCU      -0.088100
     11 C3           0.7620     0.4800    -1.6170 ca         1 TCU      -0.138000
     12 C4          -0.5420    -0.0290    -1.7470 ca         1 TCU      -0.079000
     13 C5          -1.3070    -0.3070    -0.6020 ca         1 TCU       0.060100
     14 O7          -2.5810    -0.8050    -0.7630 os         1 TCU      -0.240200
     15 C8          -3.7080    -0.1140    -0.3650 ca         1 TCU       0.140100
     16 C9          -3.6950     1.2930    -0.2600 ca         1 TCU      -0.175000
     17 C10         -4.8540     1.9830     0.1320 ca         1 TCU      -0.085000
     18 C11         -6.0310     1.2710     0.4130 ca         1 TCU      -0.139000
     19 C12         -6.0530    -0.1290     0.3010 ca         1 TCU      -0.086000
     20 C13         -4.8950    -0.8310    -0.0910 ca         1 TCU      -0.094300
     21 C14         -4.9280    -2.3500    -0.2100 c3         1 TCU      -0.034800
     22 H17         -0.9090    -0.1650     2.5960 ho         1 TCU       0.464000
     23 H1           0.9800     0.5870     1.7900 ha         1 TCU       0.115000
     24 H161         2.9580     1.9170    -1.0500 hc         1 TCU       0.047700
     25 H162         2.8050     1.8760     0.6970 hc         1 TCU       0.047700
     26 H3           1.3460     0.6940    -2.5100 ha         1 TCU       0.119000
     27 H171         3.5500    -0.5250     0.7100 hc         1 TCU       0.043700
     28 H172         3.7030    -0.4840    -1.0460 hc         1 TCU       0.043700
     29 H181         5.4530     1.3110    -0.8520 hc         1 TCU       0.036700
     30 H182         5.2990     1.2700     0.9050 hc         1 TCU       0.036700
     31 H191         6.0480    -1.1290     0.9140 hc         1 TCU       0.038200
     32 H192         6.2010    -1.0880    -0.8430 hc         1 TCU       0.038200
     33 H201         7.9530     0.7060    -0.6480 hc         1 TCU       0.036700
     34 H202         7.8000     0.6650     1.1090 hc         1 TCU       0.036700
     35 H211         9.7770    -0.6540     0.3650 hc         1 TCU       0.032033
     36 H212         8.5850    -1.7280     1.1290 hc         1 TCU       0.032033
     37 H213         8.7400    -1.6860    -0.6430 hc         1 TCU       0.032033
     38 H4          -0.9620    -0.2050    -2.7340 ha         1 TCU       0.131000
     39 H9          -2.7930     1.8560    -0.4840 ha         1 TCU       0.121000
     40 H10         -4.8410     3.0680     0.2140 ha         1 TCU       0.110000
     41 H11         -6.9290     1.8060     0.7160 ha         1 TCU       0.113000
     42 H12         -6.9720    -0.6680     0.5200 ha         1 TCU       0.111000
     43 H141        -4.1890    -2.8120     0.4560 hc         1 TCU       0.043033
     44 H142        -5.9110    -2.7590     0.0540 hc         1 TCU       0.043033
     45 H143        -4.7020    -2.6680    -1.2340 hc         1 TCU       0.043033
@<TRIPOS>BOND
     1     1     2 1   
     2     1    22 1   
     3     2     3 ar  
     4     2    13 ar  
     5     3     4 ar  
     6     3    23 1   
     7     4     5 1   
     8     4    11 ar  
     9     5     6 1   
    10     5    24 1   
    11     5    25 1   
    12     6     7 1   
    13     6    27 1   
    14     6    28 1   
    15     7     8 1   
    16     7    29 1   
    17     7    30 1   
    18     8     9 1   
    19     8    31 1   
    20     8    32 1   
    21     9    10 1   
    22     9    33 1   
    23     9    34 1   
    24    10    35 1   
    25    10    36 1   
    26    10    37 1   
    27    11    12 ar  
    28    11    26 1   
    29    12    13 ar  
    30    12    38 1   
    31    13    14 1   
    32    14    15 1   
    33    15    16 ar  
    34    15    20 ar  
    35    16    17 ar  
    36    16    39 1   
    37    17    18 ar  
    38    17    40 1   
    39    18    19 ar  
    40    18    41 1   
    41    19    20 ar  
    42    19    42 1   
    43    20    21 1   
    44    21    43 1   
    45    21    44 1   
    46    21    45 1   
@<TRIPOS>SUBSTRUCTURE
     1 TCU         1 TEMP              0 ****  ****    0 ROOT
