@<TRIPOS>MOLECULE
TCV
    6     5     1     0     0
SMALL
No Charge or Current Charge


@<TRIPOS>ATOM
      1 Cl1         -2.2450    -0.5510    -0.0340 cl         1 TCV      -0.152000
      2 C2          -0.5440    -0.9650    -0.0310 c2         1 TCV      -0.030000
      3 C3           0.4550    -0.0710    -0.0340 c2         1 TCV       0.224000
      4 Cl4          0.2110     1.6580    -0.0410 cl         1 TCV      -0.133500
      5 Cl5          2.1350    -0.5370    -0.0310 cl         1 TCV      -0.133500
      6 H2          -0.3560    -2.0370    -0.0270 h4         1 TCV       0.225000
@<TRIPOS>BOND
     1     1     2 1   
     2     2     3 2   
     3     2     6 1   
     4     3     4 1   
     5     3     5 1   
@<TRIPOS>SUBSTRUCTURE
     1 TCV         1 TEMP              0 ****  ****    0 ROOT
