@<TRIPOS>MOLECULE
TCV
    6     5     1     0     0
SMALL
bcc


@<TRIPOS>ATOM
      1 CL1         -2.1860    -0.5220    -0.0340 cl         1 TCV      -0.076400
      2 C2          -0.5340    -0.9610    -0.0310 c2         1 TCV      -0.055600
      3 C3           0.4440    -0.0640    -0.0340 c2         1 TCV       0.072800
      4 CL4          0.1790     1.6230    -0.0410 cl         1 TCV      -0.057900
      5 CL5          2.0850    -0.5560    -0.0310 cl         1 TCV      -0.057900
      6 H2          -0.3310    -2.0220    -0.0270 h4         1 TCV       0.175000
@<TRIPOS>BOND
     1     1     2 1   
     2     2     3 2   
     3     2     6 1   
     4     3     4 1   
     5     3     5 1   
@<TRIPOS>SUBSTRUCTURE
     1 TCV         1 TEMP              0 ****  ****    0 ROOT
