@<TRIPOS>MOLECULE
TCW
   31    32     1     0     0
SMALL
bcc


@<TRIPOS>ATOM
      1 O13         -1.0950    -2.8420    -0.4160 o          1 TCW      -0.518100
      2 C12         -0.9390    -1.6580    -0.1850 c          1 TCW       0.602300
      3 C4           0.4340    -1.0960    -0.1010 ca         1 TCW      -0.179600
      4 C3           1.4970    -1.9600     0.2120 ca         1 TCW      -0.110000
      5 C2           2.7930    -1.5100     0.2460 ca         1 TCW       0.075100
      6 O7           3.8520    -2.2720     0.5560 oh         1 TCW      -0.467100
      7 C5           0.6990     0.2180    -0.4110 ca         1 TCW      -0.026000
      8 C6           2.0170     0.6780    -0.3960 ca         1 TCW      -0.289200
      9 N9           2.2530     2.0570    -0.7360 no         1 TCW       0.327200
     10 O11          1.3190     2.7550    -1.0320 o          1 TCW      -0.217000
     11 O10          3.4030     2.4700    -0.7070 o          1 TCW      -0.217000
     12 C1           3.0900    -0.1610    -0.0640 ca         1 TCW       0.235100
     13 O8           4.3620     0.1790    -0.0110 oh         1 TCW      -0.450100
     14 C14         -2.1080    -0.7650     0.0020 ca         1 TCW      -0.179600
     15 C19         -3.2800    -1.0330    -0.7060 ca         1 TCW      -0.079500
     16 C18         -4.4010    -0.2410    -0.5320 ca         1 TCW      -0.140000
     17 C17         -4.4000     0.8190     0.3760 ca         1 TCW      -0.043300
     18 C20         -5.6280     1.6500     0.5880 c3         1 TCW      -0.053800
     19 C16         -3.2340     1.0660     1.0980 ca         1 TCW      -0.140000
     20 C15         -2.0990     0.2930     0.9110 ca         1 TCW      -0.079500
     21 H3           1.2910    -2.9980     0.4420 ha         1 TCW       0.161000
     22 HO7          3.5720    -3.1730     0.7550 ho         1 TCW       0.433000
     23 H5          -0.0960     0.8930    -0.6920 ha         1 TCW       0.179000
     24 HO8          4.4480     1.1240    -0.2370 ho         1 TCW       0.479000
     25 H19         -3.3080    -1.8510    -1.4140 ha         1 TCW       0.141500
     26 H18         -5.2930    -0.4490    -1.1110 ha         1 TCW       0.136000
     27 H20         -6.2260     1.2490     1.4090 hc         1 TCW       0.047367
     28 H20A        -5.3780     2.6790     0.8440 hc         1 TCW       0.047367
     29 H20B        -6.2610     1.6620    -0.2980 hc         1 TCW       0.047367
     30 H16         -3.2110     1.8750     1.8170 ha         1 TCW       0.136000
     31 H15         -1.2140     0.5050     1.4970 ha         1 TCW       0.141500
@<TRIPOS>BOND
     1     1     2 2   
     2     2     3 1   
     3     2    14 1   
     4     3     4 ar  
     5     3     7 ar  
     6     4     5 ar  
     7     4    21 1   
     8     5     6 1   
     9     5    12 ar  
    10     6    22 1   
    11     7     8 ar  
    12     7    23 1   
    13     8     9 1   
    14     8    12 ar  
    15     9    10 1   
    16     9    11 1   
    17    12    13 1   
    18    13    24 1   
    19    14    15 ar  
    20    14    20 ar  
    21    15    16 ar  
    22    15    25 1   
    23    16    17 ar  
    24    16    26 1   
    25    17    18 1   
    26    17    19 ar  
    27    18    27 1   
    28    18    28 1   
    29    18    29 1   
    30    19    20 ar  
    31    19    30 1   
    32    20    31 1   
@<TRIPOS>SUBSTRUCTURE
     1 TCW         1 TEMP              0 ****  ****    0 ROOT
