@<TRIPOS>MOLECULE
TCW
   31    32     1     0     0
SMALL
No Charge or Current Charge


@<TRIPOS>ATOM
      1 O13         -1.1040    -2.9110    -0.6220 o          1 TCW      -0.518100
      2 C12         -0.9390    -1.7350    -0.3200 c          1 TCW       0.602300
      3 C4           0.4580    -1.1680    -0.1950 ca         1 TCW      -0.179600
      4 C3           1.5140    -1.9940     0.2350 ca         1 TCW      -0.092000
      5 C2           2.8190    -1.4870     0.3440 ca         1 TCW       0.075100
      6 O7           3.8240    -2.3210     0.7770 oh         1 TCW      -0.506100
      7 C5           0.7290     0.1720    -0.5460 ca         1 TCW      -0.008000
      8 C6           2.0370     0.7080    -0.4420 ca         1 TCW      -0.289200
      9 N9           2.2570     2.1450    -0.8210 no         1 TCW       0.707200
     10 O11          1.2730     2.8220    -1.1410 o          1 TCW      -0.407000
     11 O10          3.4100     2.5940    -0.7910 o          1 TCW      -0.407000
     12 C1           3.0890    -0.1340     0.0110 ca         1 TCW       0.235100
     13 O8           4.3740     0.3270     0.1320 oh         1 TCW      -0.489100
     14 C14         -2.1270    -0.8350    -0.0660 ca         1 TCW      -0.179600
     15 C19         -3.3400    -1.0610    -0.7510 ca         1 TCW      -0.061500
     16 C18         -4.4560    -0.2400    -0.5160 ca         1 TCW      -0.122000
     17 C17         -4.3820     0.8140     0.4120 ca         1 TCW      -0.043300
     18 C20         -5.5920     1.6990     0.6690 c3         1 TCW      -0.053800
     19 C16         -3.1820     1.0310     1.1130 ca         1 TCW      -0.122000
     20 C15         -2.0640     0.2120     0.8810 ca         1 TCW      -0.061500
     21 H3           1.3120    -3.0330     0.4920 ha         1 TCW       0.143000
     22 HO7          3.4530    -3.2110     0.9560 ho         1 TCW       0.472000
     23 H5          -0.0880     0.7920    -0.9140 ha         1 TCW       0.161000
     24 HO8          4.3790     1.2650    -0.1670 ho         1 TCW       0.518000
     25 H19         -3.4190    -1.8710    -1.4740 ha         1 TCW       0.123500
     26 H18         -5.3810    -0.4250    -1.0570 ha         1 TCW       0.118000
     27 H20         -6.2110     1.2890     1.4750 hc         1 TCW       0.047367
     28 H20A        -5.2920     2.7130     0.9590 hc         1 TCW       0.047367
     29 H20B        -6.2210     1.7860    -0.2260 hc         1 TCW       0.047367
     30 H16         -3.1160     1.8330     1.8450 ha         1 TCW       0.118000
     31 H15         -1.1540     0.3890     1.4510 ha         1 TCW       0.123500
@<TRIPOS>BOND
     1     1     2 2   
     2     2     3 1   
     3     2    14 1   
     4     3     4 ar  
     5     3     7 ar  
     6     4     5 ar  
     7     4    21 1   
     8     5     6 1   
     9     5    12 ar  
    10     6    22 1   
    11     7     8 ar  
    12     7    23 1   
    13     8     9 1   
    14     8    12 ar  
    15     9    10 1   
    16     9    11 1   
    17    12    13 1   
    18    13    24 1   
    19    14    15 ar  
    20    14    20 ar  
    21    15    16 ar  
    22    15    25 1   
    23    16    17 ar  
    24    16    26 1   
    25    17    18 1   
    26    17    19 ar  
    27    18    27 1   
    28    18    28 1   
    29    18    29 1   
    30    19    20 ar  
    31    19    30 1   
    32    20    31 1   
@<TRIPOS>SUBSTRUCTURE
     1 TCW         1 TEMP              0 ****  ****    0 ROOT
