@<TRIPOS>MOLECULE
TCX
   13    12     1     0     0
SMALL
bcc


@<TRIPOS>ATOM
      1 C4           3.1260    -0.1890    -0.1220 c3         1 TCX      -0.089100
      2 C3           1.7500     0.3060     0.3010 c3         1 TCX       0.211800
      3 N            0.7120    -0.1480    -0.5990 n7         1 TCX      -0.830300
      4 P           -0.9470     0.0730    -0.0530 p5         1 TCX       1.221800
      5 O3          -1.0910     1.5300     0.4080 o          1 TCX      -0.935500
      6 O2          -1.7600    -0.2590    -1.3070 o          1 TCX      -0.935500
      7 OXT         -1.0940    -0.9330     1.0910 o          1 TCX      -0.935500
      8 H41C         3.9030     0.1600     0.5610 hc         1 TCX      -0.009967
      9 H42C         3.1610    -1.2800    -0.1430 hc         1 TCX      -0.009967
     10 H43C         3.3830     0.1700    -1.1210 hc         1 TCX      -0.009967
     11 H31C         1.5230    -0.0800     1.2990 h1         1 TCX       0.008700
     12 H32C         1.7830     1.4010     0.4050 h1         1 TCX       0.008700
     13 HN1          0.8510     0.2760    -1.5090 hn         1 TCX       0.303800
@<TRIPOS>BOND
     1     1     2 1   
     2     1     8 1   
     3     1     9 1   
     4     1    10 1   
     5     2     3 1   
     6     2    11 1   
     7     2    12 1   
     8     3     4 1   
     9     3    13 1   
    10     4     5 1   
    11     4     6 1   
    12     4     7 1   
@<TRIPOS>SUBSTRUCTURE
     1 TCX         1 TEMP              0 ****  ****    0 ROOT
