@<TRIPOS>MOLECULE
TCX
   13    12     1     0     0
SMALL
No Charge or Current Charge


@<TRIPOS>ATOM
      1 C4           3.1230    -0.1480    -0.1840 c3         1 TCX      -0.089100
      2 C3           1.7480     0.1840     0.4330 c3         1 TCX       0.211800
      3 N            0.6690    -0.2160    -0.4730 n7         1 TCX      -0.885500
      4 P           -0.8910     0.0940    -0.1230 p5         1 TCX       1.221800
      5 O3          -1.0100     1.5680    -0.0340 o          1 TCX      -0.935500
      6 O2          -1.6770    -0.4360    -1.2610 o          1 TCX      -0.935500
      7 OXT         -1.2160    -0.5670     1.1640 o          1 TCX      -0.935500
      8 H41C         3.9260     0.1590     0.4960 hc         1 TCX      -0.009967
      9 H42C         3.2240    -1.2260    -0.3640 hc         1 TCX      -0.009967
     10 H43C         3.2630     0.3790    -1.1360 hc         1 TCX      -0.009967
     11 H31C         1.6560    -0.3380     1.3950 h1         1 TCX       0.008700
     12 H32C         1.7050     1.2630     0.6300 h1         1 TCX       0.008700
     13 HN1          0.7790     0.3110    -1.3310 hn         1 TCX       0.359000
@<TRIPOS>BOND
     1     1     2 1   
     2     1     8 1   
     3     1     9 1   
     4     1    10 1   
     5     2     3 1   
     6     2    11 1   
     7     2    12 1   
     8     3     4 1   
     9     3    13 1   
    10     4     5 1   
    11     4     6 1   
    12     4     7 1   
@<TRIPOS>SUBSTRUCTURE
     1 TCX         1 TEMP              0 ****  ****    0 ROOT
