@<TRIPOS>MOLECULE
TCZ
   12    12     1     0     0
SMALL
No Charge or Current Charge


@<TRIPOS>ATOM
      1 C1           0.0590     0.0310    -1.4050 ca         1 TCZ       0.131000
      2 C2           1.2620     0.0140    -0.6800 ca         1 TCZ      -0.098667
      3 C3           1.2310     0.0110     0.7240 ca         1 TCZ       0.131000
      4 C4           0.0020     0.0260     1.4040 ca         1 TCZ      -0.098667
      5 C5          -1.1990     0.0440     0.6750 ca         1 TCZ       0.131000
      6 C6          -1.1720     0.0460    -0.7300 ca         1 TCZ      -0.098667
      7 Cl1          0.0950     0.0340    -3.1640 cl         1 TCZ      -0.180667
      8 Cl3          2.7360    -0.0100     1.6340 cl         1 TCZ      -0.180667
      9 Cl5         -2.7390     0.0620     1.5230 cl         1 TCZ      -0.180667
     10 H2           2.2140     0.0020    -1.2040 ha         1 TCZ       0.148000
     11 H4          -0.0200     0.0240     2.4900 ha         1 TCZ       0.148000
     12 H6          -2.1020     0.0590    -1.2920 ha         1 TCZ       0.148000
@<TRIPOS>BOND
     1     1     2 ar  
     2     1     6 ar  
     3     1     7 1   
     4     2     3 ar  
     5     2    10 1   
     6     3     4 ar  
     7     3     8 1   
     8     4     5 ar  
     9     4    11 1   
    10     5     6 ar  
    11     5     9 1   
    12     6    12 1   
@<TRIPOS>SUBSTRUCTURE
     1 TCZ         1 TEMP              0 ****  ****    0 ROOT
