@<TRIPOS>MOLECULE
TCZ
   12    12     1     0     0
SMALL
abcg2


@<TRIPOS>ATOM
      1 C1           0.0590     0.0310    -1.3730 ca         1 TCZ       0.131000
      2 C2           1.2570     0.0140    -0.6770 ca         1 TCZ      -0.098667
      3 C3           1.2040     0.0120     0.7070 ca         1 TCZ       0.131000
      4 C4           0.0020     0.0260     1.3970 ca         1 TCZ      -0.098667
      5 C5          -1.1710     0.0430     0.6600 ca         1 TCZ       0.131000
      6 C6          -1.1660     0.0460    -0.7260 ca         1 TCZ      -0.098667
      7 CL1          0.0920     0.0350    -3.0990 cl         1 TCZ      -0.180667
      8 CL3          2.6800    -0.0100     1.6010 cl         1 TCZ      -0.180667
      9 CL5         -2.6830     0.0610     1.4910 cl         1 TCZ      -0.180667
     10 H2           2.2030     0.0020    -1.1990 ha         1 TCZ       0.148000
     11 H4          -0.0200     0.0260     2.4780 ha         1 TCZ       0.148000
     12 H6          -2.0900     0.0590    -1.2860 ha         1 TCZ       0.148000
@<TRIPOS>BOND
     1     1     2 ar  
     2     1     6 ar  
     3     1     7 1   
     4     2     3 ar  
     5     2    10 1   
     6     3     4 ar  
     7     3     8 1   
     8     4     5 ar  
     9     4    11 1   
    10     5     6 ar  
    11     5     9 1   
    12     6    12 1   
@<TRIPOS>SUBSTRUCTURE
     1 TCZ         1 TEMP              0 ****  ****    0 ROOT
