@<TRIPOS>MOLECULE
TD1
   38    38     1     0     0
SMALL
No Charge or Current Charge


@<TRIPOS>ATOM
      1 C1          -2.1780     0.4030     0.1440 ca         1 TD1      -0.204600
      2 C2          -3.1610     0.8920    -0.7500 ca         1 TD1       0.133100
      3 C3          -3.9790     1.9870    -0.3950 ca         1 TD1       0.079100
      4 C4          -3.8270     2.6070     0.8530 ca         1 TD1      -0.110000
      5 C5          -2.8560     2.1340     1.7490 ca         1 TD1      -0.144000
      6 C6          -2.0390     1.0440     1.4030 ca         1 TD1      -0.073000
      7 C7          -1.3060    -0.7720    -0.2490 c          1 TD1       0.621700
      8 O8          -1.4190    -1.3170    -1.3430 o          1 TD1      -0.667100
      9 N9          -0.3820    -1.2030     0.6760 ns         1 TD1      -0.415900
     10 O10         -3.3320     0.3080    -1.9760 oh         1 TD1      -0.602100
     11 O11         -4.9200     2.4390    -1.2750 oh         1 TD1      -0.549100
     12 C12          0.6170    -2.2840     0.4600 c3         1 TD1      -0.066300
     13 C13          1.2870    -2.7110     1.7930 c          1 TD1       0.725000
     14 C14          1.6850    -1.9120    -0.5910 c3         1 TD1       0.174600
     15 O15          2.3050    -0.6760    -0.1900 os         1 TD1      -0.429100
     16 O16          1.7810    -3.8280     1.8480 o          1 TD1      -0.707500
     17 O17          1.1990    -1.9680     2.7640 o          1 TD1      -0.707500
     18 C24          3.2590    -0.1340    -1.0120 c          1 TD1       0.551100
     19 O25          3.6600    -0.6660    -2.0420 o          1 TD1      -0.516000
     20 C26          3.8370     1.1980    -0.4310 c3         1 TD1       0.105500
     21 N27          5.1620     1.6430    -1.0310 n8         1 TD1      -0.981200
     22 C28          2.7400     2.3040    -0.5060 c3         1 TD1       0.174600
     23 O45          3.1360     3.4870     0.2110 oh         1 TD1      -0.640000
     24 H4          -4.4580     3.4500     1.1240 ha         1 TD1       0.116000
     25 H5          -2.7360     2.6140     2.7180 ha         1 TD1       0.106000
     26 H6          -1.3000     0.7130     2.1280 ha         1 TD1       0.109000
     27 HN9         -0.3510    -0.7100     1.5590 hn         1 TD1       0.311500
     28 HO10        -2.6570    -0.4290    -2.0130 ho         1 TD1       0.544000
     29 HO11        -4.8470     1.8620    -2.0700 ho         1 TD1       0.482000
     30 H12          0.0800    -3.1680     0.0940 h1         1 TD1       0.082700
     31 H14          2.4270    -2.7180    -0.6670 h1         1 TD1       0.051200
     32 H14A         1.2060    -1.8000    -1.5730 h1         1 TD1       0.051200
     33 H26          4.0020     0.9910     0.6360 h1         1 TD1       0.109700
     34 HN27         5.8360     0.8690    -0.9680 hn         1 TD1       0.404000
     35 HN2A         5.0430     1.7610    -2.0450 hn         1 TD1       0.404000
     36 H28          2.5450     2.5450    -1.5600 h1         1 TD1       0.022700
     37 H28A         1.8050     1.9130    -0.0820 h1         1 TD1       0.022700
     38 HO45         2.4350     4.1590     0.0620 ho         1 TD1       0.433000
@<TRIPOS>BOND
     1     1     2 ar  
     2     1     6 ar  
     3     1     7 1   
     4     2     3 ar  
     5     2    10 1   
     6     3     4 ar  
     7     3    11 1   
     8     4     5 ar  
     9     4    24 1   
    10     5     6 ar  
    11     5    25 1   
    12     6    26 1   
    13     7     8 2   
    14     7     9 1   
    15     9    12 1   
    16     9    27 1   
    17    10    28 1   
    18    11    29 1   
    19    12    13 1   
    20    12    14 1   
    21    12    30 1   
    22    13    16 1   
    23    13    17 1   
    24    14    15 1   
    25    14    31 1   
    26    14    32 1   
    27    15    18 1   
    28    18    19 2   
    29    18    20 1   
    30    20    21 1   
    31    20    22 1   
    32    20    33 1   
    33    21    34 1   
    34    21    35 1   
    35    22    23 1   
    36    22    36 1   
    37    22    37 1   
    38    23    38 1   
@<TRIPOS>SUBSTRUCTURE
     1 TD1         1 TEMP              0 ****  ****    0 ROOT
