@<TRIPOS>MOLECULE
TD1
   38    38     1     0     0
SMALL
abcg2


@<TRIPOS>ATOM
      1 C1          -2.3800     0.4390    -0.0520 ca         1 TD1      -0.204600
      2 C2          -3.7780     0.3590    -0.0740 ca         1 TD1       0.133100
      3 C3          -4.5530     1.5090     0.1640 ca         1 TD1       0.079100
      4 C4          -3.9320     2.7160     0.4140 ca         1 TD1      -0.110000
      5 C5          -2.5410     2.7990     0.4300 ca         1 TD1      -0.144000
      6 C6          -1.7740     1.6780     0.1990 ca         1 TD1      -0.073000
      7 C7          -1.6190    -0.8120    -0.3050 c          1 TD1       0.621700
      8 O8          -2.2260    -1.8670    -0.5600 o          1 TD1      -0.667100
      9 N9          -0.2900    -0.7590    -0.2860 ns         1 TD1      -0.415900
     10 O10         -4.4520    -0.7700    -0.3110 oh         1 TD1      -0.602100
     11 O11         -5.8990     1.4410     0.1480 oh         1 TD1      -0.549100
     12 C12          0.5510    -1.9310    -0.3620 c3         1 TD1      -0.066300
     13 C13          0.8030    -2.5840     1.0300 c          1 TD1       0.725000
     14 C14          1.8430    -1.5910    -1.0720 c3         1 TD1       0.174600
     15 O15          2.5040    -0.5900    -0.2850 os         1 TD1      -0.429100
     16 O16          1.6230    -3.5200     1.0210 o          1 TD1      -0.707500
     17 O17          0.1630    -2.1330     1.9910 o          1 TD1      -0.707500
     18 C24          3.6500    -0.0920    -0.7300 c          1 TD1       0.551100
     19 O25          4.2010    -0.4760    -1.7290 o          1 TD1      -0.516000
     20 C26          4.1690     1.0280     0.1690 c3         1 TD1       0.105500
     21 N27          5.5580     1.3430    -0.0450 n8         1 TD1      -0.981200
     22 C28          3.2910     2.2630    -0.0430 c3         1 TD1       0.174600
     23 O45          3.6650     3.2440     0.8880 oh         1 TD1      -0.640000
     24 H4          -4.5370     3.5960     0.5960 ha         1 TD1       0.116000
     25 H5          -2.0640     3.7500     0.6240 ha         1 TD1       0.106000
     26 H6          -0.6980     1.7870     0.2100 ha         1 TD1       0.109000
     27 HN9          0.1440     0.0700     0.0840 hn         1 TD1       0.311500
     28 HO10        -3.7580    -1.4690    -0.4720 ho         1 TD1       0.544000
     29 HO11        -6.1840     0.5430    -0.0630 ho         1 TD1       0.482000
     30 H12          0.0450    -2.6710    -0.9870 h1         1 TD1       0.082700
     31 H14          2.4630    -2.4820    -1.1540 h1         1 TD1       0.051200
     32 H14A         1.6490    -1.2030    -2.0740 h1         1 TD1       0.051200
     33 H26          4.0390     0.7010     1.2060 h1         1 TD1       0.109700
     34 HN27         6.1360     0.5410     0.1710 hn         1 TD1       0.404000
     35 HN2A         5.7240     1.5590    -1.0210 hn         1 TD1       0.404000
     36 H28          3.4190     2.6140    -1.0770 h1         1 TD1       0.022700
     37 H28A         2.2370     1.9820     0.0700 h1         1 TD1       0.022700
     38 HO45         3.1080     4.0140     0.7420 ho         1 TD1       0.433000
@<TRIPOS>BOND
     1     1     2 ar  
     2     1     6 ar  
     3     1     7 1   
     4     2     3 ar  
     5     2    10 1   
     6     3     4 ar  
     7     3    11 1   
     8     4     5 ar  
     9     4    24 1   
    10     5     6 ar  
    11     5    25 1   
    12     6    26 1   
    13     7     8 2   
    14     7     9 1   
    15     9    12 1   
    16     9    27 1   
    17    10    28 1   
    18    11    29 1   
    19    12    13 1   
    20    12    14 1   
    21    12    30 1   
    22    13    16 1   
    23    13    17 1   
    24    14    15 1   
    25    14    31 1   
    26    14    32 1   
    27    15    18 1   
    28    18    19 2   
    29    18    20 1   
    30    20    21 1   
    31    20    22 1   
    32    20    33 1   
    33    21    34 1   
    34    21    35 1   
    35    22    23 1   
    36    22    36 1   
    37    22    37 1   
    38    23    38 1   
@<TRIPOS>SUBSTRUCTURE
     1 TD1         1 TEMP              0 ****  ****    0 ROOT
