@<TRIPOS>MOLECULE
TD2
   75    80     1     0     0
SMALL
No Charge or Current Charge


@<TRIPOS>ATOM
      1 C1          -1.3890    -0.8450     0.0920 c6         1 TD2       0.260300
      2 C2          -2.7780    -0.1620     0.3160 c6         1 TD2       0.152300
      3 C3          -3.9030    -1.2450     0.2660 c6         1 TD2       0.067800
      4 C4          -3.8150    -2.0840    -1.0490 c6         1 TD2       0.130800
      5 C5          -2.3680    -2.6690    -1.1580 c6         1 TD2       0.150800
      6 C6          -2.1480    -3.5200    -2.4520 c3         1 TD2       0.172600
      7 N9          -7.3030    -0.5820     1.1670 nc         1 TD2      -0.349000
      8 C12          8.0330     1.6380    -0.0990 ca         1 TD2      -0.076500
      9 C13          9.3300     1.5670    -0.6580 ca         1 TD2      -0.125000
     10 C14         10.2740     2.5730    -0.3970 ca         1 TD2       0.169000
     11 C11          1.3940    -0.8370    -0.0850 c6         1 TD2       0.260300
     12 S1          -0.0000     0.3700     0.0080 ss         1 TD2      -0.365000
     13 O5          -1.3920    -1.5970    -1.1370 os         1 TD2      -0.411500
     14 O51          1.4010    -1.5990     1.1390 os         1 TD2      -0.411500
     15 C51          2.3820    -2.6660     1.1520 c6         1 TD2       0.150800
     16 C61          2.1660    -3.5280     2.4400 c3         1 TD2       0.172600
     17 O6          -0.8270    -4.0920    -2.5360 oh         1 TD2      -0.711000
     18 O61          0.8470    -4.1060     2.5190 oh         1 TD2      -0.711000
     19 C41          3.8260    -2.0740     1.0470 c6         1 TD2       0.130800
     20 O4          -4.1410    -1.2710    -2.2020 oh         1 TD2      -0.707000
     21 O41          4.1480    -1.2680     2.2060 oh         1 TD2      -0.707000
     22 C31          3.9100    -1.2240    -0.2620 c6         1 TD2       0.067800
     23 C21          2.7790    -0.1460    -0.3040 c6         1 TD2       0.152300
     24 O2           2.8050     0.5780    -1.5550 oh         1 TD2      -0.698500
     25 O21         -2.8080     0.5520     1.5730 oh         1 TD2      -0.698500
     26 N7           5.2670    -0.6540    -0.4540 na         1 TD2       0.133800
     27 C8           5.7520     0.5110     0.0960 cc         1 TD2      -0.184000
     28 C9           7.0340     0.5810    -0.3710 cd         1 TD2       0.245500
     29 N10          7.2870    -0.5200    -1.1630 nd         1 TD2      -0.349000
     30 N11          6.2200    -1.2690    -1.2120 nc         1 TD2      -0.195800
     31 N71         -5.2620    -0.6800     0.4590 na         1 TD2       0.133800
     32 N8          -6.2220    -1.3220     1.2040 nd         1 TD2      -0.195800
     33 C10         -7.0310     0.5130     0.3990 cc         1 TD2       0.245500
     34 C71         -5.7560     0.4940    -0.0730 cd         1 TD2      -0.184000
     35 C15          9.9450     3.6610     0.4240 ca         1 TD2      -0.150500
     36 C16          8.6610     3.7440     0.9870 ca         1 TD2      -0.087000
     37 C17          7.7120     2.7390     0.7270 ca         1 TD2      -0.125000
     38 C22         -7.9820     1.6010     0.1040 ca         1 TD2      -0.076500
     39 C23         -7.6620     2.6480    -0.7930 ca         1 TD2      -0.125000
     40 C24         -8.5880     3.6710    -1.0670 ca         1 TD2      -0.087000
     41 C25         -9.8500     3.6610    -0.4530 ca         1 TD2      -0.150500
     42 C26        -10.1810     2.6260     0.4320 ca         1 TD2       0.169000
     43 C27         -9.2610     1.6030     0.7090 ca         1 TD2      -0.125000
     44 F18         11.5080     2.4910    -0.9390 f          1 TD2      -0.179000
     45 F28        -11.3960     2.6120     1.0220 f          1 TD2      -0.179000
     46 H1          -1.1730    -1.5170     0.9380 h2         1 TD2       0.088700
     47 H2          -2.9340     0.5420    -0.5160 h1         1 TD2       0.067700
     48 H3          -3.7260    -1.9310     1.1050 h1         1 TD2       0.110700
     49 H4          -4.5190    -2.9280    -0.9730 h1         1 TD2       0.061700
     50 H5          -2.1840    -3.3290    -0.2970 h1         1 TD2       0.061700
     51 H6          -2.9030    -4.3180    -2.4680 h1         1 TD2       0.035200
     52 H7          -2.3340    -2.8790    -3.3250 h1         1 TD2       0.035200
     53 H8           9.6140     0.7360    -1.2980 ha         1 TD2       0.153000
     54 H9           1.1810    -1.5040    -0.9350 h2         1 TD2       0.088700
     55 H10          2.2000    -3.3210     0.2860 h1         1 TD2       0.061700
     56 H11          2.9250    -4.3220     2.4490 h1         1 TD2       0.035200
     57 H12          2.3490    -2.8930     3.3170 h1         1 TD2       0.035200
     58 H13         -0.7640    -4.5420    -3.4100 ho         1 TD2       0.510000
     59 H14          0.7860    -4.5640     3.3900 ho         1 TD2       0.510000
     60 H15          4.5340    -2.9140     0.9640 h1         1 TD2       0.061700
     61 H16         -5.1140    -1.3370    -2.3480 ho         1 TD2       0.514000
     62 H17          5.1210    -1.3370     2.3550 ho         1 TD2       0.514000
     63 H18          3.7340    -1.9060    -1.1060 h1         1 TD2       0.110700
     64 H19          2.9320     0.5520     0.5330 h1         1 TD2       0.067700
     65 H20          2.0590     1.2220    -1.5300 ho         1 TD2       0.527000
     66 H21         -2.0640     1.2000     1.5530 ho         1 TD2       0.527000
     67 H22          5.1780     1.1620     0.7390 h4         1 TD2       0.176000
     68 H23         -5.1900     1.1710    -0.6970 h4         1 TD2       0.176000
     69 H24         10.6820     4.4350     0.6210 ha         1 TD2       0.132000
     70 H25          8.4000     4.5870     1.6240 ha         1 TD2       0.116000
     71 H26          6.7250     2.8250     1.1740 ha         1 TD2       0.112000
     72 H27         -6.6960     2.6830    -1.2890 ha         1 TD2       0.112000
     73 H28         -8.3260     4.4700    -1.7580 ha         1 TD2       0.116000
     74 H29        -10.5690     4.4490    -0.6620 ha         1 TD2       0.132000
     75 H30         -9.5480     0.8150     1.3990 ha         1 TD2       0.153000
@<TRIPOS>BOND
     1     1     2 1   
     2     1    12 1   
     3     1    13 1   
     4     1    46 1   
     5     2     3 1   
     6     2    25 1   
     7     2    47 1   
     8     3     4 1   
     9     3    31 1   
    10     3    48 1   
    11     4     5 1   
    12     4    20 1   
    13     4    49 1   
    14     5     6 1   
    15     5    13 1   
    16     5    50 1   
    17     6    17 1   
    18     6    51 1   
    19     6    52 1   
    20     7    32 2   
    21     7    33 1   
    22     8     9 ar  
    23     8    28 1   
    24     8    37 ar  
    25     9    10 ar  
    26     9    53 1   
    27    10    35 ar  
    28    10    44 1   
    29    11    12 1   
    30    11    14 1   
    31    11    23 1   
    32    11    54 1   
    33    14    15 1   
    34    15    16 1   
    35    15    19 1   
    36    15    55 1   
    37    16    18 1   
    38    16    56 1   
    39    16    57 1   
    40    17    58 1   
    41    18    59 1   
    42    19    21 1   
    43    19    22 1   
    44    19    60 1   
    45    20    61 1   
    46    21    62 1   
    47    22    23 1   
    48    22    26 1   
    49    22    63 1   
    50    23    24 1   
    51    23    64 1   
    52    24    65 1   
    53    25    66 1   
    54    26    27 1   
    55    26    30 1   
    56    27    28 2   
    57    27    67 1   
    58    28    29 1   
    59    29    30 2   
    60    31    32 1   
    61    31    34 1   
    62    33    34 2   
    63    33    38 1   
    64    34    68 1   
    65    35    36 ar  
    66    35    69 1   
    67    36    37 ar  
    68    36    70 1   
    69    37    71 1   
    70    38    39 ar  
    71    38    43 ar  
    72    39    40 ar  
    73    39    72 1   
    74    40    41 ar  
    75    40    73 1   
    76    41    42 ar  
    77    41    74 1   
    78    42    43 ar  
    79    42    45 1   
    80    43    75 1   
@<TRIPOS>SUBSTRUCTURE
     1 TD2         1 TEMP              0 ****  ****    0 ROOT
