@<TRIPOS>MOLECULE
TD2
   75    80     1     0     0
SMALL
abcg2


@<TRIPOS>ATOM
      1 C1          -1.3520    -0.8930    -0.1120 c6         1 TD2       0.260300
      2 C2          -2.6740    -0.1800     0.2050 c6         1 TD2       0.152300
      3 C3          -3.7850    -1.2130     0.0250 c6         1 TD2       0.067800
      4 C4          -3.7320    -1.8780    -1.3550 c6         1 TD2       0.130800
      5 C5          -2.3320    -2.4530    -1.5470 c6         1 TD2       0.150800
      6 C6          -2.1510    -3.0920    -2.9060 c3         1 TD2       0.172600
      7 N9          -7.0100    -0.5520     1.1440 nc         1 TD2      -0.349000
      8 C12          7.9960     1.4810    -0.1420 ca         1 TD2      -0.076500
      9 C13          9.1890     1.3350    -0.8510 ca         1 TD2      -0.125000
     10 C14         10.1970     2.2570    -0.6620 ca         1 TD2       0.169000
     11 C11          1.3770    -0.8980     0.1290 c6         1 TD2       0.260300
     12 S1           0.0140     0.2830     0.0130 ss         1 TD2      -0.365000
     13 O5          -1.3660    -1.4260    -1.4030 os         1 TD2      -0.411500
     14 O51          1.3990    -1.4310     1.4190 os         1 TD2      -0.411500
     15 C51          2.3660    -2.4580     1.5560 c6         1 TD2       0.150800
     16 C61          2.1940    -3.0990     2.9150 c3         1 TD2       0.172600
     17 O6          -0.9000    -3.7340    -2.9350 oh         1 TD2      -0.711000
     18 O61          0.9430    -3.7420     2.9500 oh         1 TD2      -0.711000
     19 C41          3.7650    -1.8830     1.3570 c6         1 TD2       0.130800
     20 O4          -4.0220    -0.9410    -2.3620 oh         1 TD2      -0.707000
     21 O41          4.0590    -0.9460     2.3630 oh         1 TD2      -0.707000
     22 C31          3.8110    -1.2180    -0.0250 c6         1 TD2       0.067800
     23 C21          2.6980    -0.1860    -0.1980 c6         1 TD2       0.152300
     24 O2           2.7470     0.2590    -1.5220 oh         1 TD2      -0.698500
     25 O21         -2.7310     0.2690     1.5270 oh         1 TD2      -0.698500
     26 N7           5.1110    -0.6370    -0.2840 na         1 TD2       0.133800
     27 C8           5.6670     0.4680     0.2380 cc         1 TD2      -0.184000
     28 C9           6.9210     0.5110    -0.3260 cd         1 TD2       0.245500
     29 N10          7.0370    -0.5630    -1.1410 nd         1 TD2      -0.349000
     30 N11          5.9500    -1.2440    -1.1100 nc         1 TD2      -0.195800
     31 N71         -5.0870    -0.6330     0.2790 na         1 TD2       0.133800
     32 N8          -5.9220    -1.2320     1.1150 nd         1 TD2      -0.195800
     33 C10         -6.8980     0.5140     0.3180 cc         1 TD2       0.245500
     34 C71         -5.6460     0.4660    -0.2510 cd         1 TD2      -0.184000
     35 C15         10.0790     3.3260     0.2050 ca         1 TD2      -0.150500
     36 C16          8.8880     3.4640     0.9050 ca         1 TD2      -0.087000
     37 C17          7.8550     2.5540     0.7380 ca         1 TD2      -0.125000
     38 C22         -7.9750     1.4800     0.1300 ca         1 TD2      -0.076500
     39 C23         -7.8360     2.5500    -0.7550 ca         1 TD2      -0.125000
     40 C24         -8.8700     3.4570    -0.9260 ca         1 TD2      -0.087000
     41 C25        -10.0610     3.3210    -0.2260 ca         1 TD2      -0.150500
     42 C26        -10.1770     2.2550     0.6460 ca         1 TD2       0.169000
     43 C27         -9.1670     1.3360     0.8390 ca         1 TD2      -0.125000
     44 F18         11.3390     2.1050    -1.3510 f          1 TD2      -0.179000
     45 F28        -11.3190     2.1040     1.3360 f          1 TD2      -0.179000
     46 H1          -1.1840    -1.6770     0.6420 h2         1 TD2       0.088700
     47 H2          -2.8040     0.6390    -0.5170 h1         1 TD2       0.067700
     48 H3          -3.6580    -1.9890     0.7850 h1         1 TD2       0.110700
     49 H4          -4.4480    -2.7070    -1.3600 h1         1 TD2       0.061700
     50 H5          -2.1810    -3.2240    -0.7740 h1         1 TD2       0.061700
     51 H6          -2.9770    -3.8010    -3.0540 h1         1 TD2       0.035200
     52 H7          -2.2370    -2.3280    -3.6860 h1         1 TD2       0.035200
     53 H8           9.3290     0.5140    -1.5420 ha         1 TD2       0.153000
     54 H9           1.2040    -1.6800    -0.6260 h2         1 TD2       0.088700
     55 H10          2.2120    -3.2280     0.7830 h1         1 TD2       0.061700
     56 H11          3.0210    -3.8070     3.0580 h1         1 TD2       0.035200
     57 H12          2.2830    -2.3350     3.6960 h1         1 TD2       0.035200
     58 H13         -0.7990    -4.1440    -3.7990 ho         1 TD2       0.510000
     59 H14          0.8430    -4.1460     3.8170 ho         1 TD2       0.510000
     60 H15          4.4810    -2.7120     1.3590 h1         1 TD2       0.061700
     61 H16         -4.8670    -1.1610    -2.7620 ho         1 TD2       0.514000
     62 H17          4.9150    -1.1540     2.7450 ho         1 TD2       0.514000
     63 H18          3.6790    -1.9950    -0.7830 h1         1 TD2       0.110700
     64 H19          2.8340     0.6340     0.5200 h1         1 TD2       0.067700
     65 H20          2.1800     1.0320    -1.6190 ho         1 TD2       0.527000
     66 H21         -2.1830     1.0550     1.6190 ho         1 TD2       0.527000
     67 H22          5.1560     1.1170     0.9260 h4         1 TD2       0.176000
     68 H23         -5.1390     1.1080    -0.9490 h4         1 TD2       0.176000
     69 H24         10.8920     4.0290     0.3320 ha         1 TD2       0.132000
     70 H25          8.7670     4.2910     1.5910 ha         1 TD2       0.116000
     71 H26          6.9400     2.6850     1.3000 ha         1 TD2       0.112000
     72 H27         -6.9200     2.6810    -1.3180 ha         1 TD2       0.112000
     73 H28         -8.7510     4.2820    -1.6160 ha         1 TD2       0.116000
     74 H29        -10.8750     4.0210    -0.3550 ha         1 TD2       0.132000
     75 H30         -9.3060     0.5170     1.5330 ha         1 TD2       0.153000
@<TRIPOS>BOND
     1     1     2 1   
     2     1    12 1   
     3     1    13 1   
     4     1    46 1   
     5     2     3 1   
     6     2    25 1   
     7     2    47 1   
     8     3     4 1   
     9     3    31 1   
    10     3    48 1   
    11     4     5 1   
    12     4    20 1   
    13     4    49 1   
    14     5     6 1   
    15     5    13 1   
    16     5    50 1   
    17     6    17 1   
    18     6    51 1   
    19     6    52 1   
    20     7    32 2   
    21     7    33 1   
    22     8     9 ar  
    23     8    28 1   
    24     8    37 ar  
    25     9    10 ar  
    26     9    53 1   
    27    10    35 ar  
    28    10    44 1   
    29    11    12 1   
    30    11    14 1   
    31    11    23 1   
    32    11    54 1   
    33    14    15 1   
    34    15    16 1   
    35    15    19 1   
    36    15    55 1   
    37    16    18 1   
    38    16    56 1   
    39    16    57 1   
    40    17    58 1   
    41    18    59 1   
    42    19    21 1   
    43    19    22 1   
    44    19    60 1   
    45    20    61 1   
    46    21    62 1   
    47    22    23 1   
    48    22    26 1   
    49    22    63 1   
    50    23    24 1   
    51    23    64 1   
    52    24    65 1   
    53    25    66 1   
    54    26    27 1   
    55    26    30 1   
    56    27    28 2   
    57    27    67 1   
    58    28    29 1   
    59    29    30 2   
    60    31    32 1   
    61    31    34 1   
    62    33    34 2   
    63    33    38 1   
    64    34    68 1   
    65    35    36 ar  
    66    35    69 1   
    67    36    37 ar  
    68    36    70 1   
    69    37    71 1   
    70    38    39 ar  
    71    38    43 ar  
    72    39    40 ar  
    73    39    72 1   
    74    40    41 ar  
    75    40    73 1   
    76    41    42 ar  
    77    41    74 1   
    78    42    43 ar  
    79    42    45 1   
    80    43    75 1   
@<TRIPOS>SUBSTRUCTURE
     1 TD2         1 TEMP              0 ****  ****    0 ROOT
