@<TRIPOS>MOLECULE
TDA
   40    39     1     0     0
SMALL
bcc


@<TRIPOS>ATOM
      1 O21          0.5640     0.1400    -7.5970 o          1 TDA      -0.849300
      2 O22         -1.3800    -0.0730    -6.5340 o          1 TDA      -0.849300
      3 C21         -0.1370     0.0250    -6.5680 c          1 TDA       0.926600
      4 C22          0.6250    -0.0060    -5.2320 c3         1 TDA      -0.203400
      5 C23         -0.2320    -0.0080    -3.9770 c3         1 TDA      -0.054400
      6 C24          0.5910    -0.0270    -2.6940 c3         1 TDA      -0.079400
      7 C25         -0.2660    -0.0190    -1.4330 c3         1 TDA      -0.075400
      8 C26          0.5480    -0.0310    -0.1450 c3         1 TDA      -0.075400
      9 C27         -0.3160    -0.0180     1.1100 c3         1 TDA      -0.075400
     10 C28          0.4920    -0.0270     2.4020 c3         1 TDA      -0.074400
     11 C29         -0.3790    -0.0110     3.6530 c3         1 TDA      -0.074400
     12 C30          0.4240    -0.0160     4.9480 c3         1 TDA      -0.074400
     13 C31         -0.4510     0.0020     6.1960 c3         1 TDA      -0.076400
     14 C32          0.3460    -0.0040     7.4950 c3         1 TDA      -0.075400
     15 C33         -0.5430     0.0200     8.7300 c3         1 TDA      -0.088100
     16 H222         1.3130     0.8480    -5.2080 hc         1 TDA       0.014200
     17 H221         1.2750    -0.8900    -5.2330 hc         1 TDA       0.014200
     18 H232        -0.9010    -0.8730    -3.9880 hc         1 TDA       0.038200
     19 H231        -0.8810     0.8730    -3.9720 hc         1 TDA       0.038200
     20 H242         1.2650     0.8380    -2.6780 hc         1 TDA       0.023700
     21 H241         1.2380    -0.9120    -2.6870 hc         1 TDA       0.023700
     22 H252        -0.9360    -0.8860    -1.4460 hc         1 TDA       0.033700
     23 H251        -0.9140     0.8640    -1.4430 hc         1 TDA       0.033700
     24 H262         1.2200     0.8340    -0.1320 hc         1 TDA       0.031700
     25 H261         1.1950    -0.9160    -0.1320 hc         1 TDA       0.031700
     26 H272        -0.9880    -0.8840     1.0960 hc         1 TDA       0.035700
     27 H271        -0.9630     0.8660     1.0940 hc         1 TDA       0.035700
     28 H282         1.1640     0.8380     2.4160 hc         1 TDA       0.034700
     29 H281         1.1380    -0.9120     2.4210 hc         1 TDA       0.034700
     30 H292        -1.0490    -0.8770     3.6380 hc         1 TDA       0.035700
     31 H291        -1.0260     0.8730     3.6310 hc         1 TDA       0.035700
     32 H302         1.0950     0.8500     4.9630 hc         1 TDA       0.035700
     33 H301         1.0710    -0.9000     4.9710 hc         1 TDA       0.035700
     34 H312        -1.1230    -0.8640     6.1800 hc         1 TDA       0.036700
     35 H311        -1.0970     0.8870     6.1720 hc         1 TDA       0.036700
     36 H322         1.0200     0.8580     7.5100 hc         1 TDA       0.035700
     37 H321         0.9880    -0.8900     7.5210 hc         1 TDA       0.035700
     38 H333         0.0420     0.0150     9.6510 hc         1 TDA       0.029033
     39 H332        -1.1720     0.9130     8.7430 hc         1 TDA       0.029033
     40 H331        -1.2050    -0.8480     8.7540 hc         1 TDA       0.029033
@<TRIPOS>BOND
     1     1     3 1   
     2     2     3 1   
     3     3     4 1   
     4     4     5 1   
     5     4    16 1   
     6     4    17 1   
     7     5     6 1   
     8     5    18 1   
     9     5    19 1   
    10     6     7 1   
    11     6    20 1   
    12     6    21 1   
    13     7     8 1   
    14     7    22 1   
    15     7    23 1   
    16     8     9 1   
    17     8    24 1   
    18     8    25 1   
    19     9    10 1   
    20     9    26 1   
    21     9    27 1   
    22    10    11 1   
    23    10    28 1   
    24    10    29 1   
    25    11    12 1   
    26    11    30 1   
    27    11    31 1   
    28    12    13 1   
    29    12    32 1   
    30    12    33 1   
    31    13    14 1   
    32    13    34 1   
    33    13    35 1   
    34    14    15 1   
    35    14    36 1   
    36    14    37 1   
    37    15    38 1   
    38    15    39 1   
    39    15    40 1   
@<TRIPOS>SUBSTRUCTURE
     1 TDA         1 TEMP              0 ****  ****    0 ROOT
