@<TRIPOS>MOLECULE
TDA
   40    39     1     0     0
SMALL
No Charge or Current Charge


@<TRIPOS>ATOM
      1 O21         -0.3980     1.1190    -7.0510 o          1 TDA      -0.744000
      2 O22         -0.6440    -1.0200    -7.0490 o          1 TDA      -0.744000
      3 C21         -0.1740     0.0100    -6.5900 c          1 TDA       0.716000
      4 C22          0.7000    -0.0900    -5.3260 c3         1 TDA      -0.203400
      5 C23         -0.1820     0.0130    -4.0570 c3         1 TDA      -0.054400
      6 C24          0.6280    -0.0800    -2.7440 c3         1 TDA      -0.079400
      7 C25         -0.2540     0.0230    -1.4800 c3         1 TDA      -0.075400
      8 C26          0.5560    -0.0690    -0.1690 c3         1 TDA      -0.075400
      9 C27         -0.3250     0.0330     1.0950 c3         1 TDA      -0.075400
     10 C28          0.4850    -0.0590     2.4070 c3         1 TDA      -0.074400
     11 C29         -0.3970     0.0440     3.6700 c3         1 TDA      -0.074400
     12 C30          0.4130    -0.0480     4.9820 c3         1 TDA      -0.074400
     13 C31         -0.4680     0.0540     6.2460 c3         1 TDA      -0.076400
     14 C32          0.3420    -0.0380     7.5570 c3         1 TDA      -0.075400
     15 C33         -0.5380     0.0640     8.8180 c3         1 TDA      -0.088100
     16 H222         1.3980     0.7540    -5.2750 hc         1 TDA       0.014200
     17 H221         1.1880    -1.0710    -5.2730 hc         1 TDA       0.014200
     18 H232        -0.9320    -0.7880    -4.0740 hc         1 TDA       0.038200
     19 H231        -0.7300     0.9630    -4.0750 hc         1 TDA       0.038200
     20 H242         1.3770     0.7220    -2.7260 hc         1 TDA       0.023700
     21 H241         1.1750    -1.0300    -2.7250 hc         1 TDA       0.023700
     22 H252        -1.0030    -0.7790    -1.4980 hc         1 TDA       0.033700
     23 H251        -0.8010     0.9740    -1.4990 hc         1 TDA       0.033700
     24 H262         1.3050     0.7330    -0.1510 hc         1 TDA       0.031700
     25 H261         1.1040    -1.0200    -0.1500 hc         1 TDA       0.031700
     26 H272        -1.0740    -0.7680     1.0780 hc         1 TDA       0.035700
     27 H271        -0.8730     0.9840     1.0760 hc         1 TDA       0.035700
     28 H282         1.2340     0.7430     2.4240 hc         1 TDA       0.034700
     29 H281         1.0320    -1.0090     2.4260 hc         1 TDA       0.034700
     30 H292        -1.1460    -0.7580     3.6530 hc         1 TDA       0.035700
     31 H291        -0.9450     0.9940     3.6510 hc         1 TDA       0.035700
     32 H302         1.1620     0.7540     5.0000 hc         1 TDA       0.035700
     33 H301         0.9610    -0.9990     5.0010 hc         1 TDA       0.035700
     34 H312        -1.2170    -0.7480     6.2280 hc         1 TDA       0.036700
     35 H311        -1.0160     1.0040     6.2270 hc         1 TDA       0.036700
     36 H322         1.0900     0.7640     7.5790 hc         1 TDA       0.035700
     37 H321         0.8900    -0.9880     7.5810 hc         1 TDA       0.035700
     38 H333         0.0800    -0.0060     9.7220 hc         1 TDA       0.029033
     39 H332        -1.0730     1.0210     8.8420 hc         1 TDA       0.029033
     40 H331        -1.2750    -0.7470     8.8440 hc         1 TDA       0.029033
@<TRIPOS>BOND
     1     1     3 1   
     2     2     3 1   
     3     3     4 1   
     4     4     5 1   
     5     4    16 1   
     6     4    17 1   
     7     5     6 1   
     8     5    18 1   
     9     5    19 1   
    10     6     7 1   
    11     6    20 1   
    12     6    21 1   
    13     7     8 1   
    14     7    22 1   
    15     7    23 1   
    16     8     9 1   
    17     8    24 1   
    18     8    25 1   
    19     9    10 1   
    20     9    26 1   
    21     9    27 1   
    22    10    11 1   
    23    10    28 1   
    24    10    29 1   
    25    11    12 1   
    26    11    30 1   
    27    11    31 1   
    28    12    13 1   
    29    12    32 1   
    30    12    33 1   
    31    13    14 1   
    32    13    34 1   
    33    13    35 1   
    34    14    15 1   
    35    14    36 1   
    36    14    37 1   
    37    15    38 1   
    38    15    39 1   
    39    15    40 1   
@<TRIPOS>SUBSTRUCTURE
     1 TDA         1 TEMP              0 ****  ****    0 ROOT
