@<TRIPOS>MOLECULE
TDD
   21    20     1     0     0
SMALL
bcc


@<TRIPOS>ATOM
      1 N           16.2160    -4.4300    -1.4190 n8         1 TDD      -0.890800
      2 CA          16.1980    -5.1710    -0.1600 c3         1 TDD       0.037500
      3 CB          16.1690    -6.7010    -0.4430 c3         1 TDD      -0.017000
      4 CG1         14.8480    -7.1260    -1.0830 c3         1 TDD      -0.071767
      5 CG2         17.3170    -7.0440    -1.3990 c3         1 TDD      -0.071767
      6 CG3         16.3830    -7.5030     0.8420 c3         1 TDD      -0.071767
      7 C           15.0170    -4.7020     0.7290 c          1 TDD       0.921600
      8 O           14.0610    -4.1380     0.1570 o          1 TDD      -0.835800
      9 OXT         15.1230    -4.9130     1.9540 o          1 TDD      -0.835800
     10 H           15.8220    -3.5110    -1.2750 hn         1 TDD       0.321800
     11 H2          17.1700    -4.2930    -1.7250 hn         1 TDD       0.321800
     12 HA          17.1170    -4.9920     0.4200 h1         1 TDD       0.002700
     13 HG11        14.0080    -7.0050    -0.3960 hc         1 TDD       0.020922
     14 HG12        14.6340    -6.5460    -1.9820 hc         1 TDD       0.020922
     15 HG13        14.8850    -8.1800    -1.3690 hc         1 TDD       0.020922
     16 HG21        17.1970    -6.5640    -2.3710 hc         1 TDD       0.020922
     17 HG22        18.2810    -6.7330    -0.9860 hc         1 TDD       0.020922
     18 HG23        17.3660    -8.1220    -1.5690 hc         1 TDD       0.020922
     19 HG31        16.4450    -8.5700     0.6150 hc         1 TDD       0.020922
     20 HG32        17.3150    -7.2180     1.3350 hc         1 TDD       0.020922
     21 HG33        15.5730    -7.3570     1.5540 hc         1 TDD       0.020922
@<TRIPOS>BOND
     1     1     2 1   
     2     1    10 1   
     3     1    11 1   
     4     2     3 1   
     5     2     7 1   
     6     2    12 1   
     7     3     4 1   
     8     3     5 1   
     9     3     6 1   
    10     4    13 1   
    11     4    14 1   
    12     4    15 1   
    13     5    16 1   
    14     5    17 1   
    15     5    18 1   
    16     6    19 1   
    17     6    20 1   
    18     6    21 1   
    19     7     8 1   
    20     7     9 1   
@<TRIPOS>SUBSTRUCTURE
     1 TDD         1 TEMP              0 ****  ****    0 ROOT
