@<TRIPOS>MOLECULE
TDD
   21    20     1     0     0
SMALL
No Charge or Current Charge


@<TRIPOS>ATOM
      1 N           16.0610    -4.3120    -1.4420 n8         1 TDD      -0.890800
      2 CA          16.1030    -5.1430    -0.1750 c3         1 TDD       0.037500
      3 CB          16.1490    -6.6910    -0.4830 c3         1 TDD      -0.017000
      4 CG1         14.8770    -7.1660    -1.2420 c3         1 TDD      -0.071767
      5 CG2         17.4010    -7.0240    -1.3470 c3         1 TDD      -0.071767
      6 CG3         16.2620    -7.4970     0.8420 c3         1 TDD      -0.071767
      7 C           15.0570    -4.7600     0.9770 c          1 TDD       0.921600
      8 O           13.8690    -4.6180     0.6950 o          1 TDD      -0.835800
      9 OXT         15.4960    -4.4440     2.0800 o          1 TDD      -0.835800
     10 H           16.2490    -3.3310    -1.2110 hn         1 TDD       0.321800
     11 H2          16.8360    -4.5920    -2.0500 hn         1 TDD       0.321800
     12 HA          17.0850    -4.9060     0.2580 h1         1 TDD       0.002700
     13 HG11        13.9710    -6.9930    -0.6510 hc         1 TDD       0.020922
     14 HG12        14.7630    -6.6460    -2.2010 hc         1 TDD       0.020922
     15 HG13        14.9310    -8.2410    -1.4550 hc         1 TDD       0.020922
     16 HG21        17.3520    -6.5460    -2.3320 hc         1 TDD       0.020922
     17 HG22        18.3200    -6.6880    -0.8510 hc         1 TDD       0.020922
     18 HG23        17.4860    -8.1050    -1.5120 hc         1 TDD       0.020922
     19 HG31        16.3850    -8.5680     0.6390 hc         1 TDD       0.020922
     20 HG32        17.1280    -7.1650     1.4290 hc         1 TDD       0.020922
     21 HG33        15.3650    -7.3830     1.4610 hc         1 TDD       0.020922
@<TRIPOS>BOND
     1     1     2 1   
     2     1    10 1   
     3     1    11 1   
     4     2     3 1   
     5     2     7 1   
     6     2    12 1   
     7     3     4 1   
     8     3     5 1   
     9     3     6 1   
    10     4    13 1   
    11     4    14 1   
    12     4    15 1   
    13     5    16 1   
    14     5    17 1   
    15     5    18 1   
    16     6    19 1   
    17     6    20 1   
    18     6    21 1   
    19     7     8 1   
    20     7     9 1   
@<TRIPOS>SUBSTRUCTURE
     1 TDD         1 TEMP              0 ****  ****    0 ROOT
