@<TRIPOS>MOLECULE
TDE
   59    59     1     0     0
SMALL
abcg2


@<TRIPOS>ATOM
      1 C2           0.8400    -0.3450    -4.8230 c          1 TDE       0.565000
      2 O8           1.7560    -0.7640    -5.5160 o          1 TDE      -0.547000
      3 C3           0.1850    -1.2540    -3.7840 c3         1 TDE       0.041700
      4 C4          -1.2090    -1.6930    -4.2420 c3         1 TDE      -0.086400
      5 C5          -2.3290    -0.6640    -4.1230 c3         1 TDE      -0.072400
      6 C6          -2.1390     0.6300    -4.8990 c3         1 TDE       0.148300
      7 C7          -0.9030     1.4240    -4.4590 c3         1 TDE       0.082000
      8 N1           0.3400     0.8930    -4.9790 ns         1 TDE      -0.498900
      9 O7          -3.3050     1.3930    -4.6750 oh         1 TDE      -0.658000
     10 N9           0.1150    -0.6460    -2.4750 ns         1 TDE      -0.506900
     11 C10          1.2040    -0.1690    -1.8490 c          1 TDE       0.561100
     12 C12          0.9610     0.4510    -0.4610 c3         1 TDE       0.074300
     13 O21          2.1660     0.9230     0.0510 os         1 TDE      -0.428000
     14 C25          2.4830     2.2430    -0.3250 c3         1 TDE       0.148900
     15 C13          0.3560    -0.5460     0.5530 c3         1 TDE       0.141300
     16 O22         -0.9180    -0.9760     0.1170 oh         1 TDE      -0.718000
     17 C14          0.3640     0.0470     1.9720 c3         1 TDE       0.113300
     18 O23         -0.1290     1.3650     2.0200 oh         1 TDE      -0.647000
     19 C15         -0.3530    -0.8600     2.9970 c3         1 TDE       0.176500
     20 O24         -1.7530    -0.7810     2.8670 oh         1 TDE      -0.719000
     21 C16          0.1450    -0.5560     4.3820 c2         1 TDE      -0.263200
     22 C17         -0.5990    -0.2580     5.4400 c2         1 TDE      -0.188200
     23 C18         -0.1130     0.0720     6.8290 c3         1 TDE      -0.013800
     24 C21         -0.5460     1.5080     7.1520 c3         1 TDE      -0.082767
     25 C20         -0.7970    -0.8860     7.8110 c3         1 TDE      -0.082767
     26 C19          1.4020    -0.0460     6.9710 c3         1 TDE      -0.082767
     27 O11          2.3090    -0.1690    -2.3640 o          1 TDE      -0.570100
     28 H3           0.8190    -2.1450    -3.7540 h1         1 TDE       0.082700
     29 H41         -1.1290    -2.0450    -5.2740 hc         1 TDE       0.058200
     30 H42         -1.4930    -2.5690    -3.6530 hc         1 TDE       0.058200
     31 H51         -3.2480    -1.1410    -4.4720 hc         1 TDE       0.054700
     32 H52         -2.5080    -0.4130    -3.0720 hc         1 TDE       0.054700
     33 H6          -2.0210     0.3950    -5.9670 h1         1 TDE       0.038700
     34 H71         -0.9810     2.4370    -4.8550 h1         1 TDE       0.050700
     35 H72         -0.8760     1.5150    -3.3710 h1         1 TDE       0.050700
     36 HN1          0.7750     1.4300    -5.7140 hn         1 TDE       0.310500
     37 HO7         -3.2800     2.1680    -5.2460 ho         1 TDE       0.445000
     38 HN9         -0.7140    -0.7870    -1.9160 hn         1 TDE       0.334500
     39 H12          0.2340     1.2690    -0.5880 h1         1 TDE       0.050700
     40 H251         3.4210     2.5060     0.1620 h1         1 TDE       0.037367
     41 H252         2.6140     2.3540    -1.4050 h1         1 TDE       0.037367
     42 H253         1.7120     2.9480     0.0050 h1         1 TDE       0.037367
     43 H13          0.9790    -1.4460     0.5820 h1         1 TDE       0.094700
     44 H22         -1.5840    -0.3160     0.3390 ho         1 TDE       0.509000
     45 H14          1.4130     0.1060     2.2690 h1         1 TDE       0.104700
     46 H23         -1.0880     1.3580     1.9400 ho         1 TDE       0.433000
     47 H15         -0.0770    -1.8960     2.7650 h1         1 TDE       0.091700
     48 H24         -2.0780    -0.0340     3.3810 ho         1 TDE       0.504000
     49 H16          1.2260    -0.5970     4.4770 ha         1 TDE       0.184000
     50 H17         -1.6850    -0.2350     5.3500 ha         1 TDE       0.163000
     51 H211        -0.2730     1.7720     8.1760 hc         1 TDE       0.036367
     52 H212        -0.0700     2.2250     6.4810 hc         1 TDE       0.036367
     53 H213        -1.6280     1.6260     7.0570 hc         1 TDE       0.036367
     54 H201        -1.8840    -0.8160     7.7370 hc         1 TDE       0.036367
     55 H202        -0.5140    -1.9220     7.6170 hc         1 TDE       0.036367
     56 H203        -0.5180    -0.6490     8.8400 hc         1 TDE       0.036367
     57 H191         1.9280     0.6360     6.3020 hc         1 TDE       0.036367
     58 H192         1.7040     0.1970     7.9920 hc         1 TDE       0.036367
     59 H193         1.7500    -1.0590     6.7590 hc         1 TDE       0.036367
@<TRIPOS>BOND
     1     1     2 2   
     2     1     3 1   
     3     1     8 1   
     4     3     4 1   
     5     3    10 1   
     6     3    28 1   
     7     4     5 1   
     8     4    29 1   
     9     4    30 1   
    10     5     6 1   
    11     5    31 1   
    12     5    32 1   
    13     6     7 1   
    14     6     9 1   
    15     6    33 1   
    16     7     8 1   
    17     7    34 1   
    18     7    35 1   
    19     8    36 1   
    20     9    37 1   
    21    10    11 1   
    22    10    38 1   
    23    11    12 1   
    24    11    27 2   
    25    12    13 1   
    26    12    15 1   
    27    12    39 1   
    28    13    14 1   
    29    14    40 1   
    30    14    41 1   
    31    14    42 1   
    32    15    16 1   
    33    15    17 1   
    34    15    43 1   
    35    16    44 1   
    36    17    18 1   
    37    17    19 1   
    38    17    45 1   
    39    18    46 1   
    40    19    20 1   
    41    19    21 1   
    42    19    47 1   
    43    20    48 1   
    44    21    22 2   
    45    21    49 1   
    46    22    23 1   
    47    22    50 1   
    48    23    24 1   
    49    23    25 1   
    50    23    26 1   
    51    24    51 1   
    52    24    52 1   
    53    24    53 1   
    54    25    54 1   
    55    25    55 1   
    56    25    56 1   
    57    26    57 1   
    58    26    58 1   
    59    26    59 1   
@<TRIPOS>SUBSTRUCTURE
     1 TDE         1 TEMP              0 ****  ****    0 ROOT
