@<TRIPOS>MOLECULE
TDE
   59    59     1     0     0
SMALL
No Charge or Current Charge


@<TRIPOS>ATOM
      1 C2           0.0010     0.9410    -5.1500 c          1 TDE       0.565000
      2 O8           0.5200     1.2580    -6.2090 o          1 TDE      -0.547000
      3 C3           0.5230    -0.2490    -4.2980 c3         1 TDE       0.041700
      4 C4          -0.4350    -1.4610    -4.4070 c3         1 TDE      -0.086400
      5 C5          -1.7850    -1.3040    -3.6630 c3         1 TDE      -0.072400
      6 C6          -2.6530    -0.0960    -4.1000 c3         1 TDE       0.148300
      7 C7          -2.0520     1.2900    -3.7170 c3         1 TDE       0.082000
      8 N1          -0.9660     1.7540    -4.5980 ns         1 TDE      -0.498900
      9 O7          -3.9420    -0.2330    -3.4860 oh         1 TDE      -0.658000
     10 N9           0.7770     0.1600    -2.8950 ns         1 TDE      -0.506900
     11 C10          1.4980    -0.5680    -1.9680 c          1 TDE       0.561100
     12 C12          1.6800     0.1260    -0.5850 c3         1 TDE       0.074300
     13 O21          2.9490    -0.2190     0.0370 os         1 TDE      -0.428000
     14 C25          4.1180     0.3210    -0.6080 c3         1 TDE       0.148900
     15 C13          0.5530    -0.2960     0.3990 c3         1 TDE       0.141300
     16 O22         -0.7410     0.0270    -0.1470 oh         1 TDE      -0.718000
     17 C14          0.6790     0.3530     1.8180 c3         1 TDE       0.113300
     18 O23          0.5990     1.7930     1.7290 oh         1 TDE      -0.647000
     19 C15         -0.4330    -0.1530     2.7920 c3         1 TDE       0.176500
     20 O24         -1.7120     0.3240     2.3500 oh         1 TDE      -0.719000
     21 C16         -0.2500     0.3100     4.2180 c2         1 TDE      -0.263200
     22 C17         -0.7040    -0.3400     5.3060 c2         1 TDE      -0.188200
     23 C18         -0.5250     0.1080     6.7530 c3         1 TDE      -0.013800
     24 C21         -1.1890     1.4930     6.9560 c3         1 TDE      -0.082767
     25 C20         -1.1960    -0.9200     7.7010 c3         1 TDE      -0.082767
     26 C19          0.9860     0.1950     7.0880 c3         1 TDE      -0.082767
     27 O11          2.0310    -1.6310    -2.2650 o          1 TDE      -0.570100
     28 H3           1.4860    -0.5370    -4.7410 h1         1 TDE       0.082700
     29 H41         -0.6290    -1.6670    -5.4670 hc         1 TDE       0.058200
     30 H42          0.0730    -2.3510    -4.0150 hc         1 TDE       0.058200
     31 H51         -2.3610    -2.2240    -3.8230 hc         1 TDE       0.054700
     32 H52         -1.6030    -1.2470    -2.5830 hc         1 TDE       0.054700
     33 H6          -2.7720    -0.1330    -5.1920 h1         1 TDE       0.038700
     34 H71         -2.8480     2.0450    -3.7660 h1         1 TDE       0.050700
     35 H72         -1.6940     1.2650    -2.6810 h1         1 TDE       0.050700
     36 HN1         -1.1410     2.6060    -5.1190 hn         1 TDE       0.310500
     37 HO7         -4.5530     0.3850    -3.9450 ho         1 TDE       0.445000
     38 HN9          0.3660     1.0260    -2.5640 hn         1 TDE       0.334500
     39 H12          1.6200     1.2110    -0.7410 h1         1 TDE       0.050700
     40 H251         5.0230     0.0310    -0.0590 h1         1 TDE       0.037367
     41 H252         4.2120    -0.0500    -1.6360 h1         1 TDE       0.037367
     42 H253         4.0750     1.4180    -0.6360 h1         1 TDE       0.037367
     43 H13          0.6330    -1.3860     0.5300 h1         1 TDE       0.094700
     44 H22         -1.3150     0.1690     0.6580 ho         1 TDE       0.509000
     45 H14          1.6490     0.0530     2.2390 h1         1 TDE       0.104700
     46 H23         -0.3560     1.9990     1.8330 ho         1 TDE       0.433000
     47 H15         -0.4130    -1.2550     2.7820 h1         1 TDE       0.091700
     48 H24         -2.3090     0.2550     3.1320 ho         1 TDE       0.504000
     49 H16          0.3010     1.2460     4.3250 ha         1 TDE       0.184000
     50 H17         -1.2490    -1.2780     5.1830 ha         1 TDE       0.163000
     51 H211        -1.1010     1.8210     8.0000 hc         1 TDE       0.036367
     52 H212        -0.7170     2.2560     6.3250 hc         1 TDE       0.036367
     53 H213        -2.2540     1.4550     6.7000 hc         1 TDE       0.036367
     54 H201        -2.2690    -1.0050     7.4890 hc         1 TDE       0.036367
     55 H202        -0.7460    -1.9130     7.5820 hc         1 TDE       0.036367
     56 H203        -1.0810    -0.6200     8.7500 hc         1 TDE       0.036367
     57 H191         1.4900     0.9380     6.4590 hc         1 TDE       0.036367
     58 H192         1.1400     0.4820     8.1350 hc         1 TDE       0.036367
     59 H193         1.4760    -0.7730     6.9250 hc         1 TDE       0.036367
@<TRIPOS>BOND
     1     1     2 2   
     2     1     3 1   
     3     1     8 1   
     4     3     4 1   
     5     3    10 1   
     6     3    28 1   
     7     4     5 1   
     8     4    29 1   
     9     4    30 1   
    10     5     6 1   
    11     5    31 1   
    12     5    32 1   
    13     6     7 1   
    14     6     9 1   
    15     6    33 1   
    16     7     8 1   
    17     7    34 1   
    18     7    35 1   
    19     8    36 1   
    20     9    37 1   
    21    10    11 1   
    22    10    38 1   
    23    11    12 1   
    24    11    27 2   
    25    12    13 1   
    26    12    15 1   
    27    12    39 1   
    28    13    14 1   
    29    14    40 1   
    30    14    41 1   
    31    14    42 1   
    32    15    16 1   
    33    15    17 1   
    34    15    43 1   
    35    16    44 1   
    36    17    18 1   
    37    17    19 1   
    38    17    45 1   
    39    18    46 1   
    40    19    20 1   
    41    19    21 1   
    42    19    47 1   
    43    20    48 1   
    44    21    22 2   
    45    21    49 1   
    46    22    23 1   
    47    22    50 1   
    48    23    24 1   
    49    23    25 1   
    50    23    26 1   
    51    24    51 1   
    52    24    52 1   
    53    24    53 1   
    54    25    54 1   
    55    25    55 1   
    56    25    56 1   
    57    26    57 1   
    58    26    58 1   
    59    26    59 1   
@<TRIPOS>SUBSTRUCTURE
     1 TDE         1 TEMP              0 ****  ****    0 ROOT
