@<TRIPOS>MOLECULE
TDF
   25    25     1     0     0
SMALL
No Charge or Current Charge


@<TRIPOS>ATOM
      1 C           27.5480   -43.4630    -2.8570 c          1 TDF       0.726000
      2 N           30.1040   -43.5440    -2.2390 n8         1 TDF      -0.978200
      3 O           26.7810   -42.5330    -2.6410 o          1 TDF      -0.726000
      4 CA          28.6810   -43.7680    -1.7890 c3         1 TDF       0.019500
      5 CB          28.5370   -45.1990    -1.2080 c3         1 TDF      -0.064100
      6 CG          27.2170   -45.4040    -0.4750 ca         1 TDF       0.007700
      7 CZ          24.7630   -45.7810     0.8960 ca         1 TDF      -0.219300
      8 C13         23.4410   -45.9970     1.6430 c3         1 TDF       0.355300
      9 F19         23.4760   -47.1260     2.3860 f          1 TDF      -0.125667
     10 F20         23.1530   -44.9780     2.4850 f          1 TDF      -0.125667
     11 F21         22.3870   -46.1100     0.8020 f          1 TDF      -0.125667
     12 CD1         26.1730   -46.1340    -1.0710 ca         1 TDF      -0.104000
     13 CD2         27.0310   -44.8690     0.8130 ca         1 TDF      -0.104000
     14 CE1         24.9570   -46.3240    -0.3930 ca         1 TDF      -0.065000
     15 CE2         25.8160   -45.0570     1.4950 ca         1 TDF      -0.065000
     16 OXT         27.5390   -44.1060    -3.9010 o          1 TDF      -0.726000
     17 HN          30.7480   -43.9050    -1.5250 hn         1 TDF       0.374000
     18 HNA         30.2860   -44.1340    -3.0600 hn         1 TDF       0.374000
     19 HA          28.5100   -43.0700    -0.9570 h1         1 TDF       0.048700
     20 HB          28.6450   -45.9340    -2.0160 hc         1 TDF       0.030200
     21 HBA         29.3630   -45.3920    -0.5120 hc         1 TDF       0.030200
     22 HD1         26.3030   -46.5570    -2.0650 ha         1 TDF       0.121000
     23 HD2         27.8310   -44.3080     1.2890 ha         1 TDF       0.121000
     24 HE1         24.1680   -46.8980    -0.8740 ha         1 TDF       0.111500
     25 HE2         25.7010   -44.6390     2.4930 ha         1 TDF       0.111500
@<TRIPOS>BOND
     1     1     3 1   
     2     1     4 1   
     3     1    16 1   
     4     2     4 1   
     5     2    17 1   
     6     2    18 1   
     7     4     5 1   
     8     4    19 1   
     9     5     6 1   
    10     5    20 1   
    11     5    21 1   
    12     6    12 ar  
    13     6    13 ar  
    14     7     8 1   
    15     7    14 ar  
    16     7    15 ar  
    17     8     9 1   
    18     8    10 1   
    19     8    11 1   
    20    12    14 ar  
    21    12    22 1   
    22    13    15 ar  
    23    13    23 1   
    24    14    24 1   
    25    15    25 1   
@<TRIPOS>SUBSTRUCTURE
     1 TDF         1 TEMP              0 ****  ****    0 ROOT
