@<TRIPOS>MOLECULE
TDF
   25    25     1     0     0
SMALL
bcc


@<TRIPOS>ATOM
      1 C           27.5980   -43.4110    -2.6730 c          1 TDF       0.936600
      2 N           30.0160   -43.5970    -2.3420 n8         1 TDF      -0.867800
      3 O           26.7330   -42.6070    -2.2810 o          1 TDF      -0.831300
      4 CA          28.7290   -43.7760    -1.6860 c3         1 TDF       0.019500
      5 CB          28.5270   -45.2150    -1.1690 c3         1 TDF      -0.064100
      6 CG          27.2160   -45.4230    -0.4720 ca         1 TDF       0.007700
      7 CZ          24.7650   -45.7810     0.8360 ca         1 TDF      -0.219300
      8 C13         23.4830   -45.9740     1.5760 c3         1 TDF       0.719200
      9 F19         23.6540   -46.6990     2.6940 f          1 TDF      -0.246967
     10 F20         22.9530   -44.8050     1.9680 f          1 TDF      -0.246967
     11 F21         22.5540   -46.6030     0.8500 f          1 TDF      -0.246967
     12 CD1         26.1740   -46.1140    -1.0810 ca         1 TDF      -0.122000
     13 CD2         27.0030   -44.9030     0.8060 ca         1 TDF      -0.122000
     14 CE1         24.9570   -46.2980    -0.4370 ca         1 TDF      -0.083000
     15 CE2         25.7950   -45.0760     1.4560 ca         1 TDF      -0.083000
     16 OXT         27.6500   -43.9830    -3.7830 o          1 TDF      -0.831300
     17 HN          30.7540   -43.9830    -1.7650 hn         1 TDF       0.318800
     18 HNA         30.0100   -44.1400    -3.1970 hn         1 TDF       0.318800
     19 HA          28.6840   -43.0990    -0.8270 h1         1 TDF       0.048700
     20 HB          28.6130   -45.9040    -2.0130 hc         1 TDF       0.030200
     21 HBA         29.3430   -45.4490    -0.4780 hc         1 TDF       0.030200
     22 HD1         26.3130   -46.5220    -2.0740 ha         1 TDF       0.139000
     23 HD2         27.7980   -44.3600     1.3020 ha         1 TDF       0.139000
     24 HE1         24.1740   -46.8480    -0.9410 ha         1 TDF       0.129500
     25 HE2         25.6640   -44.6630     2.4490 ha         1 TDF       0.129500
@<TRIPOS>BOND
     1     1     3 1   
     2     1     4 1   
     3     1    16 1   
     4     2     4 1   
     5     2    17 1   
     6     2    18 1   
     7     4     5 1   
     8     4    19 1   
     9     5     6 1   
    10     5    20 1   
    11     5    21 1   
    12     6    12 ar  
    13     6    13 ar  
    14     7     8 1   
    15     7    14 ar  
    16     7    15 ar  
    17     8     9 1   
    18     8    10 1   
    19     8    11 1   
    20    12    14 ar  
    21    12    22 1   
    22    13    15 ar  
    23    13    23 1   
    24    14    24 1   
    25    15    25 1   
@<TRIPOS>SUBSTRUCTURE
     1 TDF         1 TEMP              0 ****  ****    0 ROOT
