@<TRIPOS>MOLECULE
TDH
   30    32     1     0     0
SMALL
No Charge or Current Charge


@<TRIPOS>ATOM
      1 CAC         -2.0960     1.7190    -0.8720 ca         1 TDH      -0.180000
      2 CAD         -3.8080     0.3650     0.1760 ca         1 TDH      -0.180000
      3 CAE          2.2980     1.4170     1.1150 ca         1 TDH      -0.174000
      4 CAF          3.1230     0.8720    -1.1070 ca         1 TDH      -0.174000
      5 CAG         -1.1720     0.6690    -0.7230 ca         1 TDH      -0.047500
      6 CAH         -2.8880    -0.6870     0.3260 ca         1 TDH      -0.047500
      7 CAI          1.5200     0.2450     1.1140 ca         1 TDH      -0.050500
      8 CAJ          2.3470    -0.3010    -1.1120 ca         1 TDH      -0.050500
      9 CAK         -0.9250    -2.9760     0.4310 cc         1 TDH       0.194900
     10 CAN         -3.4120     1.5680    -0.4180 ca         1 TDH       0.152100
     11 CAO          3.0970     1.7300     0.0030 ca         1 TDH       0.152100
     12 CAP         -1.5490    -0.5500    -0.1080 ca         1 TDH      -0.068000
     13 CAQ          1.5340    -0.6130    -0.0050 ca         1 TDH      -0.048200
     14 CAR         -0.6120    -1.6930     0.0680 cd         1 TDH      -0.116000
     15 NAL          0.1930    -3.7610     0.5410 nc         1 TDH      -0.356000
     16 NAM          1.2460    -3.0180     0.3190 nd         1 TDH      -0.190800
     17 NAS          0.7720    -1.7800    -0.0100 na         1 TDH       0.223000
     18 OAA         -4.3130     2.5810    -0.5590 oh         1 TDH      -0.529100
     19 H1          -1.7800     2.6430    -1.3490 ha         1 TDH       0.125500
     20 H2          -4.8310     0.2440     0.5250 ha         1 TDH       0.125500
     21 H3           2.2750     2.0740     1.9810 ha         1 TDH       0.129500
     22 H4           3.7460     1.1140    -1.9640 ha         1 TDH       0.129500
     23 H5          -0.1750     0.8160    -1.1220 ha         1 TDH       0.122500
     24 H6          -3.2260    -1.6060     0.7980 ha         1 TDH       0.122500
     25 H7           0.9040     0.0050     1.9790 ha         1 TDH       0.135500
     26 H8           2.3730    -0.9640    -1.9750 ha         1 TDH       0.135500
     27 H9          -1.8990    -3.4090     0.6140 h4         1 TDH       0.050100
     28 H10         -3.8630     3.3370    -0.9940 ho         1 TDH       0.468000
     29 H11          3.7160     3.3350     0.8440 ho         1 TDH       0.470000
     30 OAB          3.8530     2.8630    -0.0050 oh         1 TDH      -0.526100
@<TRIPOS>BOND
     1     1     5 ar  
     2     1    10 ar  
     3     1    19 1   
     4     2     6 ar  
     5     2    10 ar  
     6     2    20 1   
     7     3     7 ar  
     8     3    11 ar  
     9     3    21 1   
    10     4     8 ar  
    11     4    11 ar  
    12     4    22 1   
    13     5    12 ar  
    14     5    23 1   
    15     6    12 ar  
    16     6    24 1   
    17     7    13 ar  
    18     7    25 1   
    19     8    13 ar  
    20     8    26 1   
    21     9    14 2   
    22     9    15 1   
    23     9    27 1   
    24    10    18 1   
    25    11    30 1   
    26    12    14 1   
    27    13    17 1   
    28    14    17 1   
    29    15    16 2   
    30    16    17 1   
    31    18    28 1   
    32    29    30 1   
@<TRIPOS>SUBSTRUCTURE
     1 TDH         1 TEMP              0 ****  ****    0 ROOT
