@<TRIPOS>MOLECULE
TDH
   30    32     1     0     0
SMALL
bcc


@<TRIPOS>ATOM
      1 CAC         -2.2480     1.5650    -1.0510 ca         1 TDH      -0.198000
      2 CAD         -3.6860     0.4620     0.5340 ca         1 TDH      -0.198000
      3 CAE          2.1620     1.5830     1.0450 ca         1 TDH      -0.192000
      4 CAF          3.3800     0.7060    -0.8400 ca         1 TDH      -0.192000
      5 CAG         -1.3490     0.5170    -0.9600 ca         1 TDH      -0.065500
      6 CAH         -2.7790    -0.5790     0.6190 ca         1 TDH      -0.065500
      7 CAI          1.3310     0.4760     1.0220 ca         1 TDH      -0.068500
      8 CAJ          2.5390    -0.3910    -0.8700 ca         1 TDH      -0.068500
      9 CAK         -0.9360    -3.0540     0.0160 cc         1 TDH       0.260200
     10 CAN         -3.4230     1.5460    -0.3010 ca         1 TDH       0.152100
     11 CAO          3.1940     1.7040     0.1160 ca         1 TDH       0.152100
     12 CAP         -1.5970    -0.5690    -0.1210 ca         1 TDH      -0.068000
     13 CAQ          1.5170    -0.5070     0.0620 ca         1 TDH      -0.048200
     14 CAR         -0.6830    -1.7030    -0.0230 cd         1 TDH      -0.130600
     15 NAL          0.2370    -3.7120     0.0780 nc         1 TDH      -0.356000
     16 NAM          1.2000    -2.8610     0.0890 nd         1 TDH      -0.190800
     17 NAS          0.6690    -1.6420     0.0290 na         1 TDH       0.172300
     18 OAA         -4.3310     2.5360    -0.3450 oh         1 TDH      -0.490100
     19 H1          -2.0360     2.3950    -1.7150 ha         1 TDH       0.143500
     20 H2          -4.5960     0.4420     1.1200 ha         1 TDH       0.143500
     21 H3           2.0100     2.3470     1.7990 ha         1 TDH       0.147500
     22 H4           4.1790     0.7970    -1.5650 ha         1 TDH       0.147500
     23 H5          -0.4540     0.5470    -1.5670 ha         1 TDH       0.140500
     24 H6          -2.9910    -1.4060     1.2840 ha         1 TDH       0.140500
     25 H7           0.5420     0.3840     1.7560 ha         1 TDH       0.153500
     26 H8           2.6780    -1.1550    -1.6230 ha         1 TDH       0.153500
     27 H9          -1.8850    -3.5630    -0.0240 h4         1 TDH       0.050100
     28 H10         -4.0410     3.2390    -0.9380 ho         1 TDH       0.429000
     29 H11          3.8090     3.3850     0.7860 ho         1 TDH       0.431000
     30 OAB          4.0360     2.7500     0.0970 oh         1 TDH      -0.487100
@<TRIPOS>BOND
     1     1     5 ar  
     2     1    10 ar  
     3     1    19 1   
     4     2     6 ar  
     5     2    10 ar  
     6     2    20 1   
     7     3     7 ar  
     8     3    11 ar  
     9     3    21 1   
    10     4     8 ar  
    11     4    11 ar  
    12     4    22 1   
    13     5    12 ar  
    14     5    23 1   
    15     6    12 ar  
    16     6    24 1   
    17     7    13 ar  
    18     7    25 1   
    19     8    13 ar  
    20     8    26 1   
    21     9    14 2   
    22     9    15 1   
    23     9    27 1   
    24    10    18 1   
    25    11    30 1   
    26    12    14 1   
    27    13    17 1   
    28    14    17 1   
    29    15    16 2   
    30    16    17 1   
    31    18    28 1   
    32    29    30 1   
@<TRIPOS>SUBSTRUCTURE
     1 TDH         1 TEMP              0 ****  ****    0 ROOT
