@<TRIPOS>MOLECULE
TDI
   39    41     1     0     0
SMALL
No Charge or Current Charge


@<TRIPOS>ATOM
      1 C2           4.0790     1.3050     1.6480 ca         1 TDI       0.139900
      2 C4           2.7300    -0.2270     0.6520 ca         1 TDI       0.126800
      3 C5           3.7200    -0.5520    -0.2280 ca         1 TDI      -0.220200
      4 C6           4.9470     0.1190    -0.1220 ca         1 TDI       0.389900
      5 CS5         -6.9130    -0.8360    -0.4700 c3         1 TDI       0.042900
      6 S           -5.5130    -0.3610     0.6420 ss         1 TDI      -0.445000
      7 C12         -4.2820     0.2030    -0.6220 c3         1 TDI       0.072600
      8 C11         -2.9580     0.6710     0.0190 c5         1 TDI      -0.049700
      9 C1          -2.1710    -0.4390     0.7950 c5         1 TDI       0.156800
     10 N1          -0.8050    -0.4150     0.2100 n3         1 TDI      -0.720600
     11 C9           1.5850    -1.0320     0.3420 cc         1 TDI      -0.267000
     12 C8           1.9550    -1.8200    -0.7480 cd         1 TDI      -0.122100
     13 N7           3.2930    -1.5310    -1.1170 na         1 TDI      -0.202700
     14 N6           6.0060    -0.1280    -0.9390 nv         1 TDI      -1.071900
     15 N2           5.1320     1.0580     0.8240 nb         1 TDI      -0.271000
     16 N3           2.8640     0.7040     1.6140 nb         1 TDI      -0.174000
     17 C7          -0.6030     0.9900    -0.2090 c5         1 TDI       0.121800
     18 C3          -1.9160     1.2110    -1.0070 c5         1 TDI       0.162300
     19 O3          -2.1500     2.5810    -1.3480 oh         1 TDI      -0.655000
     20 H2           4.2260     2.0640     2.4140 h5         1 TDI       0.045100
     21 HS51        -6.5910    -1.6270    -1.1590 h1         1 TDI       0.058367
     22 HS52        -7.7550    -1.2040     0.1300 h1         1 TDI       0.058367
     23 HS53        -7.2410     0.0360    -1.0510 h1         1 TDI       0.058367
     24 H5'1        -4.0780    -0.6210    -1.3180 h1         1 TDI       0.062200
     25 H5'2        -4.7180     1.0330    -1.1940 h1         1 TDI       0.062200
     26 H4          -3.2250     1.4690     0.7210 hc         1 TDI       0.084700
     27 H1'1        -2.1530    -0.2050     1.8700 h1         1 TDI       0.048200
     28 H1'2        -2.6310    -1.4310     0.6830 h1         1 TDI       0.048200
     29 H101         0.3540    -0.4510     1.9890 h1         1 TDI       0.044700
     30 H102        -0.0130    -2.0420     1.3110 h1         1 TDI       0.044700
     31 H8           1.3600    -2.5530    -1.2880 h4         1 TDI       0.220000
     32 HN7          3.8160    -1.9430    -1.8850 hn         1 TDI       0.350000
     33 HN61         6.0210    -0.9910    -1.4740 hn         1 TDI       0.483000
     34 HN62         6.9120     0.2590    -0.6810 hn         1 TDI       0.483000
     35 H2'1        -0.5210     1.6720     0.6490 h1         1 TDI       0.052700
     36 H2'2         0.2870     1.1130    -0.8420 h1         1 TDI       0.052700
     37 H3          -1.9120     0.5900    -1.9150 h1         1 TDI       0.034700
     38 H1          -1.4630     2.8320    -2.0040 ho         1 TDI       0.445000
     39 C10          0.2560    -1.0090     1.0470 c3         1 TDI       0.249000
@<TRIPOS>BOND
     1     1    15 ar  
     2     1    16 ar  
     3     1    20 1   
     4     2     3 ar  
     5     2    11 1   
     6     2    16 ar  
     7     3     4 ar  
     8     3    13 1   
     9     4    14 1   
    10     4    15 ar  
    11     5     6 1   
    12     5    21 1   
    13     5    22 1   
    14     5    23 1   
    15     6     7 1   
    16     7     8 1   
    17     7    24 1   
    18     7    25 1   
    19     8     9 1   
    20     8    18 1   
    21     8    26 1   
    22     9    10 1   
    23     9    27 1   
    24     9    28 1   
    25    10    17 1   
    26    10    39 1   
    27    11    12 2   
    28    11    39 1   
    29    12    13 1   
    30    12    31 1   
    31    13    32 1   
    32    14    33 1   
    33    14    34 1   
    34    17    18 1   
    35    17    35 1   
    36    17    36 1   
    37    18    19 1   
    38    18    37 1   
    39    19    38 1   
    40    29    39 1   
    41    30    39 1   
@<TRIPOS>SUBSTRUCTURE
     1 TDI         1 TEMP              0 ****  ****    0 ROOT
