@<TRIPOS>MOLECULE
TDI
   39    41     1     0     0
SMALL
bcc


@<TRIPOS>ATOM
      1 C2           3.9720     1.4010     1.0920 ca         1 TDI       0.665900
      2 C4           2.5200    -0.2060     0.5580 ca         1 TDI       0.455100
      3 C5           3.4530    -0.7480    -0.3340 ca         1 TDI      -0.350800
      4 C6           4.7040    -0.1240    -0.4610 ca         1 TDI       0.718200
      5 CS5         -6.1380    -1.4450    -1.1630 c3         1 TDI      -0.005000
      6 S           -5.2980    -0.6150     0.2040 ss         1 TDI      -0.349200
      7 C12         -3.9300     0.1600    -0.7030 c3         1 TDI       0.024700
      8 C11         -3.0100     0.9160     0.2450 c5         1 TDI      -0.049700
      9 C1          -2.2010    -0.0080     1.1620 c5         1 TDI       0.156800
     10 N1          -0.9370    -0.1590     0.4650 n3         1 TDI      -0.720600
     11 C9           1.3540    -1.0200     0.5030 cc         1 TDI      -0.267000
     12 C8           1.6320    -2.0030    -0.4140 cd         1 TDI      -0.072100
     13 N7           2.8840    -1.8450    -0.9160 na         1 TDI      -0.152400
     14 N6           5.6610    -0.5460    -1.3120 nv         1 TDI      -0.961500
     15 N2           4.9330     0.9610     0.2730 nb         1 TDI      -0.797000
     16 N3           2.7780     0.8950     1.2920 nb         1 TDI      -0.700000
     17 C7          -0.6080     1.1840     0.0390 c5         1 TDI       0.121800
     18 C3          -1.9290     1.6900    -0.5460 c5         1 TDI       0.139100
     19 O3          -2.1260     3.0770    -0.4190 oh         1 TDI      -0.592800
     20 H2           4.2250     2.2910     1.6610 h5         1 TDI       0.045100
     21 HS51        -5.4790    -2.1580    -1.6540 h1         1 TDI       0.058367
     22 HS52        -6.9890    -1.9840    -0.7500 h1         1 TDI       0.058367
     23 HS53        -6.5040    -0.7270    -1.8960 h1         1 TDI       0.058367
     24 H5'1        -3.3670    -0.6130    -1.2340 h1         1 TDI       0.062200
     25 H5'2        -4.3470     0.8410    -1.4480 h1         1 TDI       0.062200
     26 H4          -3.6010     1.6240     0.8340 hc         1 TDI       0.084700
     27 H1'1        -2.0680     0.4640     2.1510 h1         1 TDI       0.048200
     28 H1'2        -2.6770    -0.9770     1.3300 h1         1 TDI       0.048200
     29 H101         0.3000    -0.2590     2.1800 h1         1 TDI       0.044700
     30 H102        -0.3190    -1.7880     1.5690 h1         1 TDI       0.044700
     31 H8           1.0120    -2.8200    -0.7480 h4         1 TDI       0.170000
     32 HN7          3.3040    -2.4540    -1.5990 hn         1 TDI       0.299700
     33 HN61         5.6290    -1.4760    -1.6930 hn         1 TDI       0.427800
     34 HN62         6.5810    -0.1520    -1.2080 hn         1 TDI       0.427800
     35 H2'1        -0.3100     1.8280     0.8860 h1         1 TDI       0.052700
     36 H2'2         0.2070     1.1890    -0.6860 h1         1 TDI       0.052700
     37 H3          -1.9800     1.3950    -1.6030 h1         1 TDI       0.034700
     38 H1          -1.4810     3.5240    -0.9760 ho         1 TDI       0.406000
     39 C10          0.0810    -0.8200     1.2560 c3         1 TDI       0.249000
@<TRIPOS>BOND
     1     1    15 ar  
     2     1    16 ar  
     3     1    20 1   
     4     2     3 ar  
     5     2    11 1   
     6     2    16 ar  
     7     3     4 ar  
     8     3    13 1   
     9     4    14 1   
    10     4    15 ar  
    11     5     6 1   
    12     5    21 1   
    13     5    22 1   
    14     5    23 1   
    15     6     7 1   
    16     7     8 1   
    17     7    24 1   
    18     7    25 1   
    19     8     9 1   
    20     8    18 1   
    21     8    26 1   
    22     9    10 1   
    23     9    27 1   
    24     9    28 1   
    25    10    17 1   
    26    10    39 1   
    27    11    12 2   
    28    11    39 1   
    29    12    13 1   
    30    12    31 1   
    31    13    32 1   
    32    14    33 1   
    33    14    34 1   
    34    17    18 1   
    35    17    35 1   
    36    17    36 1   
    37    18    19 1   
    38    18    37 1   
    39    19    38 1   
    40    29    39 1   
    41    30    39 1   
@<TRIPOS>SUBSTRUCTURE
     1 TDI         1 TEMP              0 ****  ****    0 ROOT
