@<TRIPOS>MOLECULE
TDO
   57    59     1     0     0
SMALL
bcc


@<TRIPOS>ATOM
      1 O4P         -3.0170    -0.5780     2.9270 o          1 TDO      -0.841000
      2 P2          -2.7590    -1.1390     1.5680 p5         1 TDO       1.452800
      3 O3P         -3.2430    -2.5020     1.1900 o          1 TDO      -0.841000
      4 O1          -3.2780    -0.0640     0.4050 os         1 TDO      -0.494200
      5 C1          -4.6320     0.0600     0.1860 c6         1 TDO       0.414900
      6 C2          -4.8960     0.2960    -1.2960 c6         1 TDO       0.114100
      7 O2          -4.2210     1.4560    -1.6920 oh         1 TDO      -0.546800
      8 C3          -6.4050     0.4590    -1.4960 c6         1 TDO      -0.017900
      9 O3          -6.6860     0.7490    -2.8320 oh         1 TDO      -0.605800
     10 C4          -6.9090     1.5300    -0.5520 c          1 TDO       0.528100
     11 O4          -7.6060     2.4350    -0.9410 o          1 TDO      -0.560100
     12 C5          -6.4860     1.3410     0.8960 c6         1 TDO       0.078100
     13 O5          -5.0850     1.1590     0.9390 os         1 TDO      -0.386600
     14 C6          -6.8560     2.5030     1.7880 c3         1 TDO      -0.074100
     15 OPP         -1.1880    -0.9480     1.1490 os         1 TDO      -0.682800
     16 P            0.0630    -1.2830     2.1630 p5         1 TDO       1.456800
     17 O1P         -0.2510    -2.4780     3.0070 o          1 TDO      -0.847500
     18 O2P          0.5550    -0.0170     2.7870 o          1 TDO      -0.847500
     19 O8           1.0720    -1.7210     0.9390 os         1 TDO      -0.545200
     20 C11          2.3480    -2.2050     1.3020 c3         1 TDO       0.203400
     21 C10          3.1960    -2.3590     0.0640 c5         1 TDO       0.144100
     22 O7           3.4790    -1.0870    -0.4920 os         1 TDO      -0.357600
     23 C9           4.5430    -3.0240     0.3450 c5         1 TDO       0.104100
     24 O6           4.4010    -4.4150     0.1960 oh         1 TDO      -0.579800
     25 C8           5.4600    -2.3630    -0.6840 c5         1 TDO      -0.155400
     26 C7           4.7620    -1.0500    -1.0480 c5         1 TDO       0.325500
     27 N11          5.4360     0.1800    -0.6310 n          1 TDO      -0.379000
     28 C21          5.7340     0.3870     0.6960 c          1 TDO       0.832500
     29 O21          5.5030    -0.4200     1.5710 o          1 TDO      -0.606500
     30 N31          6.3270     1.5940     0.9620 ns         1 TDO      -0.601500
     31 C41          6.6420     2.6070     0.0750 c          1 TDO       0.739700
     32 O41          7.1730     3.6310     0.4650 o          1 TDO      -0.638500
     33 C51          6.2810     2.3270    -1.3000 cc         1 TDO      -0.298400
     34 C5A          6.5610     3.3550    -2.3460 c3         1 TDO      -0.007900
     35 C61          5.7000     1.1450    -1.5680 cd         1 TDO       0.073600
     36 H1          -5.1850    -0.8460     0.4890 h2         1 TDO       0.021700
     37 H2          -4.5600    -0.5910    -1.8530 h1         1 TDO       0.063700
     38 HA          -4.4710     1.6460    -2.6030 ho         1 TDO       0.380000
     39 H3          -6.8960    -0.4770    -1.1810 h1         1 TDO       0.062700
     40 HB          -7.3120     1.4850    -2.8580 ho         1 TDO       0.414000
     41 H5          -6.9950     0.4290     1.2550 h1         1 TDO       0.039700
     42 H6C1        -6.3980     3.4320     1.4490 hc         1 TDO       0.043033
     43 H6C2        -7.9350     2.6390     1.8090 hc         1 TDO       0.043033
     44 H6C3        -6.5270     2.3060     2.8080 hc         1 TDO       0.043033
     45 H5'1         2.8550    -1.5280     2.0000 h1         1 TDO       0.031200
     46 H5'2         2.2720    -3.1860     1.7870 h1         1 TDO       0.031200
     47 H4           2.6560    -2.9720    -0.6730 h1         1 TDO       0.073700
     48 H8           4.8800    -2.7770     1.3560 h1         1 TDO       0.071700
     49 HC           5.1770    -4.8390     0.5740 ho         1 TDO       0.389000
     50 H2'1         5.4980    -2.9900    -1.5760 hc         1 TDO       0.051200
     51 H2'2         6.4830    -2.2240    -0.3370 hc         1 TDO       0.051200
     52 H7           4.6960    -0.9590    -2.1350 h2         1 TDO       0.045700
     53 H31          6.5520     1.7570     1.9360 hn         1 TDO       0.338500
     54 H5A1         6.0680     4.3000    -2.1150 hc         1 TDO       0.035700
     55 H5A2         7.6300     3.5610    -2.4260 hc         1 TDO       0.035700
     56 H5A3         6.2110     3.0230    -3.3210 hc         1 TDO       0.035700
     57 H61          5.4090     0.8890    -2.5780 h4         1 TDO       0.148000
@<TRIPOS>BOND
     1     1     2 1   
     2     2     3 1   
     3     2     4 1   
     4     2    15 1   
     5     4     5 1   
     6     5     6 1   
     7     5    13 1   
     8     5    36 1   
     9     6     7 1   
    10     6     8 1   
    11     6    37 1   
    12     7    38 1   
    13     8     9 1   
    14     8    10 1   
    15     8    39 1   
    16     9    40 1   
    17    10    11 2   
    18    10    12 1   
    19    12    13 1   
    20    12    14 1   
    21    12    41 1   
    22    14    42 1   
    23    14    43 1   
    24    14    44 1   
    25    15    16 1   
    26    16    17 1   
    27    16    18 1   
    28    16    19 1   
    29    19    20 1   
    30    20    21 1   
    31    20    45 1   
    32    20    46 1   
    33    21    22 1   
    34    21    23 1   
    35    21    47 1   
    36    22    26 1   
    37    23    24 1   
    38    23    25 1   
    39    23    48 1   
    40    24    49 1   
    41    25    26 1   
    42    25    50 1   
    43    25    51 1   
    44    26    27 1   
    45    26    52 1   
    46    27    28 1   
    47    27    35 1   
    48    28    29 2   
    49    28    30 1   
    50    30    31 1   
    51    30    53 1   
    52    31    32 2   
    53    31    33 1   
    54    33    34 1   
    55    33    35 2   
    56    34    54 1   
    57    34    55 1   
    58    34    56 1   
    59    35    57 1   
@<TRIPOS>SUBSTRUCTURE
     1 TDO         1 TEMP              0 ****  ****    0 ROOT
