@<TRIPOS>MOLECULE
TDO
   57    59     1     0     0
SMALL
No Charge or Current Charge


@<TRIPOS>ATOM
      1 O4P         -3.3140    -3.7780     0.8490 o          1 TDO      -0.841000
      2 P2          -2.9910    -2.3520     0.5410 p5         1 TDO       1.452800
      3 O3P         -2.7820    -2.1160    -0.9190 o          1 TDO      -0.841000
      4 O1          -4.1930    -1.4250     1.0730 os         1 TDO      -0.517400
      5 C1          -4.3950    -0.1680     0.4240 c6         1 TDO       0.461300
      6 C2          -3.2330     0.8880     0.6310 c6         1 TDO       0.137300
      7 O2          -2.9900     1.1990     2.0210 oh         1 TDO      -0.669000
      8 C3          -3.5690     2.2430    -0.0690 c6         1 TDO       0.005300
      9 O3          -2.6230     3.2730     0.3480 oh         1 TDO      -0.668000
     10 C4          -5.0580     2.6740     0.1550 c          1 TDO       0.528100
     11 O4          -5.3690     3.8510     0.3380 o          1 TDO      -0.560100
     12 C5          -6.0910     1.5020     0.1340 c6         1 TDO       0.101300
     13 O5          -5.6360     0.3790     0.9200 os         1 TDO      -0.433000
     14 C6          -7.4780     1.9240     0.6920 c3         1 TDO      -0.074100
     15 OPP         -1.8470    -1.7510     1.4390 os         1 TDO      -0.682800
     16 P           -0.5550    -2.6500     1.5020 p5         1 TDO       1.456800
     17 O1P         -0.1150    -3.2020     0.1880 o          1 TDO      -0.847500
     18 O2P         -0.6490    -3.6860     2.5750 o          1 TDO      -0.847500
     19 O8           0.4350    -1.4690     1.9790 os         1 TDO      -0.568400
     20 C11          1.7910    -1.7450     2.3750 c3         1 TDO       0.226600
     21 C10          2.6940    -2.0250     1.1400 c5         1 TDO       0.167300
     22 O7           2.7250    -0.8870     0.2560 os         1 TDO      -0.404000
     23 C9           4.2040    -2.2130     1.4680 c5         1 TDO       0.127300
     24 O6           4.5050    -3.4840     2.0520 oh         1 TDO      -0.702000
     25 C8           4.8210    -2.0670     0.0470 c5         1 TDO      -0.155400
     26 C7           3.7970    -1.1280    -0.6680 c5         1 TDO       0.348700
     27 N11          4.5040     0.1120    -1.0840 n          1 TDO      -0.312000
     28 C21          4.7880     1.1310    -0.1470 c          1 TDO       0.623000
     29 O21          4.5750     1.0500     1.0520 o          1 TDO      -0.531000
     30 N31          5.3670     2.2520    -0.6510 ns         1 TDO      -0.467500
     31 C41          5.7100     2.5240    -1.9350 c          1 TDO       0.597200
     32 O41          6.2260     3.5880    -2.2350 o          1 TDO      -0.563000
     33 C51          5.4040     1.4350    -2.8860 cc         1 TDO      -0.298400
     34 C5A          5.7640     1.6910    -4.3310 c3         1 TDO      -0.007900
     35 C61          4.8170     0.2730    -2.4330 cd         1 TDO       0.023600
     36 H1          -4.5130    -0.3500    -0.6560 h2         1 TDO       0.021700
     37 H2          -2.3140     0.4990     0.1670 h1         1 TDO       0.063700
     38 HA          -2.5780     2.0970     1.9790 ho         1 TDO       0.479000
     39 H3          -3.4880     2.0800    -1.1550 h1         1 TDO       0.062700
     40 HB          -3.0070     4.1440     0.0840 ho         1 TDO       0.453000
     41 H5          -6.2060     1.1820    -0.9130 h1         1 TDO       0.039700
     42 H6C1        -7.4020     2.2770     1.7290 hc         1 TDO       0.043033
     43 H6C2        -7.9170     2.7310     0.0940 hc         1 TDO       0.043033
     44 H6C3        -8.1810     1.0820     0.6740 hc         1 TDO       0.043033
     45 H5'1         2.2010    -0.8860     2.9230 h1         1 TDO       0.031200
     46 H5'2         1.8300    -2.6110     3.0480 h1         1 TDO       0.031200
     47 H4           2.3190    -2.8990     0.5930 h1         1 TDO       0.073700
     48 H8           4.5440    -1.3970     2.1230 h1         1 TDO       0.071700
     49 HC           5.4830    -3.5260     2.1670 ho         1 TDO       0.488000
     50 H2'1         4.8740    -3.0290    -0.4760 hc         1 TDO       0.051200
     51 H2'2         5.8390    -1.6630     0.0790 hc         1 TDO       0.051200
     52 H7           3.4020    -1.6080    -1.5730 h2         1 TDO       0.045700
     53 H31          5.5720     2.9740     0.0190 hn         1 TDO       0.338500
     54 H5A1         5.2200     2.5580    -4.7250 hc         1 TDO       0.035700
     55 H5A2         6.8380     1.8840    -4.4420 hc         1 TDO       0.035700
     56 H5A3         5.5150     0.8280    -4.9630 hc         1 TDO       0.035700
     57 H61          4.5570    -0.5710    -3.0680 h4         1 TDO       0.198000
@<TRIPOS>BOND
     1     1     2 1   
     2     2     3 1   
     3     2     4 1   
     4     2    15 1   
     5     4     5 1   
     6     5     6 1   
     7     5    13 1   
     8     5    36 1   
     9     6     7 1   
    10     6     8 1   
    11     6    37 1   
    12     7    38 1   
    13     8     9 1   
    14     8    10 1   
    15     8    39 1   
    16     9    40 1   
    17    10    11 2   
    18    10    12 1   
    19    12    13 1   
    20    12    14 1   
    21    12    41 1   
    22    14    42 1   
    23    14    43 1   
    24    14    44 1   
    25    15    16 1   
    26    16    17 1   
    27    16    18 1   
    28    16    19 1   
    29    19    20 1   
    30    20    21 1   
    31    20    45 1   
    32    20    46 1   
    33    21    22 1   
    34    21    23 1   
    35    21    47 1   
    36    22    26 1   
    37    23    24 1   
    38    23    25 1   
    39    23    48 1   
    40    24    49 1   
    41    25    26 1   
    42    25    50 1   
    43    25    51 1   
    44    26    27 1   
    45    26    52 1   
    46    27    28 1   
    47    27    35 1   
    48    28    29 2   
    49    28    30 1   
    50    30    31 1   
    51    30    53 1   
    52    31    32 2   
    53    31    33 1   
    54    33    34 1   
    55    33    35 2   
    56    34    54 1   
    57    34    55 1   
    58    34    56 1   
    59    35    57 1   
@<TRIPOS>SUBSTRUCTURE
     1 TDO         1 TEMP              0 ****  ****    0 ROOT
