@<TRIPOS>MOLECULE
TDR
   15    15     1     0     0
SMALL
No Charge or Current Charge


@<TRIPOS>ATOM
      1 N1          -1.2240     0.1440    -1.0750 ns         1 TDR      -0.518600
      2 C2           0.0440    -0.0100    -1.5550 c          1 TDR       0.615000
      3 O2           0.3000    -0.0170    -2.7420 o          1 TDR      -0.553000
      4 N3           0.9890    -0.1540    -0.5950 ns         1 TDR      -0.469500
      5 C4           0.8200    -0.1620     0.7570 c          1 TDR       0.586200
      6 O4           1.7720    -0.3030     1.5080 o          1 TDR      -0.524000
      7 C5          -0.5880     0.0110     1.2000 cc         1 TDR      -0.260400
      8 CM5         -0.8220     0.0080     2.6930 c3         1 TDR      -0.021900
      9 C6          -1.5870     0.1610     0.2610 cd         1 TDR      -0.009400
     10 HN1         -1.9230     0.2510    -1.8050 hn         1 TDR       0.462000
     11 HN3          1.9350    -0.2700    -0.9220 hn         1 TDR       0.344500
     12 H5M1        -0.2690     0.8200     3.1800 hc         1 TDR       0.047700
     13 H5M2        -1.8840     0.1410     2.9300 hc         1 TDR       0.047700
     14 H5M3        -0.4970    -0.9390     3.1410 hc         1 TDR       0.047700
     15 H6          -2.6470     0.2940     0.4750 h4         1 TDR       0.205000
@<TRIPOS>BOND
     1     1     2 1   
     2     1     9 1   
     3     1    10 1   
     4     2     3 2   
     5     2     4 1   
     6     4     5 1   
     7     4    11 1   
     8     5     6 2   
     9     5     7 1   
    10     7     8 1   
    11     7     9 2   
    12     8    12 1   
    13     8    13 1   
    14     8    14 1   
    15     9    15 1   
@<TRIPOS>SUBSTRUCTURE
     1 TDR         1 TEMP              0 ****  ****    0 ROOT
