@<TRIPOS>MOLECULE
TDR
   15    15     1     0     0
SMALL
abcg2


@<TRIPOS>ATOM
      1 N1          -1.2260     0.1400    -1.0690 ns         1 TDR      -0.518600
      2 C2           0.0340    -0.0060    -1.5740 c          1 TDR       0.615000
      3 O2           0.2830    -0.0080    -2.7620 o          1 TDR      -0.553000
      4 N3           0.9950    -0.1530    -0.6060 ns         1 TDR      -0.469500
      5 C4           0.8170    -0.1620     0.7690 c          1 TDR       0.586200
      6 O4           1.7720    -0.3020     1.5110 o          1 TDR      -0.524000
      7 C5          -0.5560     0.0050     1.2100 cc         1 TDR      -0.260400
      8 CM5         -0.8460     0.0120     2.6750 c3         1 TDR      -0.021900
      9 C6          -1.5040     0.1460     0.2670 cd         1 TDR      -0.009400
     10 HN1         -1.9800     0.2530    -1.7300 hn         1 TDR       0.462000
     11 HN3          1.9430    -0.2690    -0.9420 hn         1 TDR       0.344500
     12 H5M1        -0.3030     0.8100     3.1840 hc         1 TDR       0.047700
     13 H5M2        -1.9090     0.1620     2.8590 hc         1 TDR       0.047700
     14 H5M3        -0.5530    -0.9280     3.1460 hc         1 TDR       0.047700
     15 H6          -2.5490     0.2730     0.5120 h4         1 TDR       0.205000
@<TRIPOS>BOND
     1     1     2 1   
     2     1     9 1   
     3     1    10 1   
     4     2     3 2   
     5     2     4 1   
     6     4     5 1   
     7     4    11 1   
     8     5     6 2   
     9     5     7 1   
    10     7     8 1   
    11     7     9 2   
    12     8    12 1   
    13     8    13 1   
    14     8    14 1   
    15     9    15 1   
@<TRIPOS>SUBSTRUCTURE
     1 TDR         1 TEMP              0 ****  ****    0 ROOT
