@<TRIPOS>MOLECULE
TDS
   68    69     1     0     0
SMALL
No Charge or Current Charge


@<TRIPOS>ATOM
      1 CBC         -0.7080     0.2070    14.3090 c3         1 TDS      -0.088100
      2 CBB         -0.5900     0.9350    12.9570 c3         1 TDS      -0.074400
      3 CBA         -0.4780    -0.0300    11.7570 c3         1 TDS      -0.075400
      4 CAZ         -0.3590     0.7010    10.4010 c3         1 TDS      -0.074400
      5 CAY         -0.2480    -0.2650     9.2020 c3         1 TDS      -0.074400
      6 CAX         -0.1290     0.4660     7.8460 c3         1 TDS      -0.074400
      7 CAW         -0.0170    -0.5000     6.6460 c3         1 TDS      -0.074400
      8 CAV          0.1010     0.2310     5.2910 c3         1 TDS      -0.074400
      9 CAU          0.2130    -0.7350     4.0910 c3         1 TDS      -0.074400
     10 CAT          0.3310    -0.0040     2.7360 c3         1 TDS      -0.074400
     11 CAS          0.4430    -0.9700     1.5360 c3         1 TDS      -0.075400
     12 CAR          0.5620    -0.2390     0.1810 c3         1 TDS      -0.072400
     13 CAQ          0.6740    -1.2030    -1.0210 c3         1 TDS      -0.035200
     14 CAP          0.8070    -0.4850    -2.3410 cc         1 TDS       0.130900
     15 OAO         -0.4020    -0.0850    -2.8790 os         1 TDS      -0.194200
     16 CAH          1.9700     0.0140    -2.9100 cd         1 TDS      -0.277400
     17 CAI          3.3400    -0.0510    -2.2530 c3         1 TDS      -0.025900
     18 CAG          1.9550     0.6020    -4.2650 c          1 TDS       0.601900
     19 OAC          2.9340     1.1650    -4.7390 o          1 TDS      -0.532100
     20 CAF          0.6820     0.4170    -5.0090 ca         1 TDS      -0.260600
     21 CAN         -0.4420     0.0410    -4.2580 ca         1 TDS       0.184100
     22 CAM         -1.6930    -0.1250    -4.8910 ca         1 TDS       0.035100
     23 OBD         -2.8140    -0.4580    -4.1670 oh         1 TDS      -0.517100
     24 CAL         -1.8090     0.0450    -6.2810 ca         1 TDS       0.141100
     25 OAK         -3.0550    -0.1400    -6.8540 os         1 TDS      -0.361100
     26 CAJ         -3.2880     0.0090    -8.2670 c3         1 TDS       0.157900
     27 CAD         -0.6760     0.3920    -7.0400 ca         1 TDS      -0.299000
     28 CAE          0.5730     0.5810    -6.4100 ca         1 TDS       0.232100
     29 OAB          1.6950     0.9070    -7.1470 os         1 TDS      -0.300100
     30 CAA          1.6730     1.0900    -8.5730 c3         1 TDS       0.144900
     31 HBC1        -0.7850     0.9310    15.1280 hc         1 TDS       0.031367
     32 HBC2        -1.6010    -0.4300    14.3300 hc         1 TDS       0.031367
     33 HBC3         0.1710    -0.4230    14.4890 hc         1 TDS       0.031367
     34 HBB1        -1.4650     1.5830    12.8230 hc         1 TDS       0.036700
     35 HBB2         0.2910     1.5890    12.9810 hc         1 TDS       0.036700
     36 HBA1         0.3980    -0.6770    11.8950 hc         1 TDS       0.036700
     37 HBA2        -1.3590    -0.6840    11.7370 hc         1 TDS       0.036700
     38 HAZ1        -1.2350     1.3470    10.2630 hc         1 TDS       0.036700
     39 HAZ2         0.5220     1.3540    10.4210 hc         1 TDS       0.036700
     40 HAY1         0.6280    -0.9120     9.3400 hc         1 TDS       0.036700
     41 HAY2        -1.1290    -0.9190     9.1820 hc         1 TDS       0.036700
     42 HAX1        -1.0040     1.1120     7.7080 hc         1 TDS       0.037700
     43 HAX2         0.7520     1.1190     7.8650 hc         1 TDS       0.037700
     44 HAW1         0.8580    -1.1470     6.7850 hc         1 TDS       0.037200
     45 HAW2        -0.8980    -1.1540     6.6270 hc         1 TDS       0.037200
     46 HAV1        -0.7740     0.8770     5.1530 hc         1 TDS       0.037700
     47 HAV2         0.9820     0.8840     5.3100 hc         1 TDS       0.037700
     48 HAU1         1.0880    -1.3820     4.2290 hc         1 TDS       0.037200
     49 HAU2        -0.6690    -1.3890     4.0720 hc         1 TDS       0.037200
     50 HAT1        -0.5440     0.6420     2.5980 hc         1 TDS       0.039700
     51 HAT2         1.2120     0.6490     2.7550 hc         1 TDS       0.039700
     52 HAS1         1.3180    -1.6170     1.6750 hc         1 TDS       0.038700
     53 HAS2        -0.4390    -1.6240     1.5170 hc         1 TDS       0.038700
     54 HAR1        -0.3130     0.4080     0.0410 hc         1 TDS       0.049200
     55 HAR2         1.4410     0.4170     0.2020 hc         1 TDS       0.049200
     56 HAQ1         1.5220    -1.8810    -0.8750 hc         1 TDS       0.067200
     57 HAQ2        -0.2170    -1.8420    -1.0470 hc         1 TDS       0.067200
     58 HAI1         4.0230    -0.6820    -2.8340 hc         1 TDS       0.044367
     59 HAI2         3.7900     0.9470    -2.1780 hc         1 TDS       0.044367
     60 HAI3         3.3060    -0.4580    -1.2370 hc         1 TDS       0.044367
     61 HBD         -3.5610    -0.5230    -4.8040 ho         1 TDS       0.475000
     62 HAJ1        -4.3420    -0.1820    -8.5010 h1         1 TDS       0.045367
     63 HAJ2        -3.0460     1.0270    -8.5970 h1         1 TDS       0.045367
     64 HAJ3        -2.6790    -0.7020    -8.8400 h1         1 TDS       0.045367
     65 HAD         -0.7670     0.5150    -8.1120 ha         1 TDS       0.126000
     66 HAA1         2.6750     1.3450    -8.9380 h1         1 TDS       0.043367
     67 HAA2         1.3520     0.1700    -9.0800 h1         1 TDS       0.043367
     68 HAA3         0.9930     1.9040    -8.8520 h1         1 TDS       0.043367
@<TRIPOS>BOND
     1     1     2 1   
     2     1    31 1   
     3     1    32 1   
     4     1    33 1   
     5     2     3 1   
     6     2    34 1   
     7     2    35 1   
     8     3     4 1   
     9     3    36 1   
    10     3    37 1   
    11     4     5 1   
    12     4    38 1   
    13     4    39 1   
    14     5     6 1   
    15     5    40 1   
    16     5    41 1   
    17     6     7 1   
    18     6    42 1   
    19     6    43 1   
    20     7     8 1   
    21     7    44 1   
    22     7    45 1   
    23     8     9 1   
    24     8    46 1   
    25     8    47 1   
    26     9    10 1   
    27     9    48 1   
    28     9    49 1   
    29    10    11 1   
    30    10    50 1   
    31    10    51 1   
    32    11    12 1   
    33    11    52 1   
    34    11    53 1   
    35    12    13 1   
    36    12    54 1   
    37    12    55 1   
    38    13    14 1   
    39    13    56 1   
    40    13    57 1   
    41    14    15 1   
    42    14    16 2   
    43    15    21 1   
    44    16    17 1   
    45    16    18 1   
    46    17    58 1   
    47    17    59 1   
    48    17    60 1   
    49    18    19 2   
    50    18    20 1   
    51    20    21 ar  
    52    20    28 ar  
    53    21    22 ar  
    54    22    23 1   
    55    22    24 ar  
    56    23    61 1   
    57    24    25 1   
    58    24    27 ar  
    59    25    26 1   
    60    26    62 1   
    61    26    63 1   
    62    26    64 1   
    63    27    28 ar  
    64    27    65 1   
    65    28    29 1   
    66    29    30 1   
    67    30    66 1   
    68    30    67 1   
    69    30    68 1   
@<TRIPOS>SUBSTRUCTURE
     1 TDS         1 TEMP              0 ****  ****    0 ROOT
