@<TRIPOS>MOLECULE
TDS
   68    69     1     0     0
SMALL
bcc


@<TRIPOS>ATOM
      1 CBC         -0.7210     0.4080    14.0440 c3         1 TDS      -0.088100
      2 CBB         -0.5300     1.1080    12.7060 c3         1 TDS      -0.074400
      3 CBA         -0.5090     0.1380    11.5310 c3         1 TDS      -0.075400
      4 CAZ         -0.3290     0.8240    10.1820 c3         1 TDS      -0.074400
      5 CAY         -0.3010    -0.1540     9.0130 c3         1 TDS      -0.074400
      6 CAX         -0.1200     0.5240     7.6610 c3         1 TDS      -0.074400
      7 CAW         -0.0850    -0.4610     6.4980 c3         1 TDS      -0.074400
      8 CAV          0.0990     0.2080     5.1420 c3         1 TDS      -0.074400
      9 CAU          0.1450    -0.7850     3.9870 c3         1 TDS      -0.074400
     10 CAT          0.3290    -0.1240     2.6270 c3         1 TDS      -0.074400
     11 CAS          0.4130    -1.1290     1.4860 c3         1 TDS      -0.075400
     12 CAR          0.5880    -0.4740     0.1220 c3         1 TDS      -0.072400
     13 CAQ          0.7900    -1.5130    -0.9850 c3         1 TDS      -0.035200
     14 CAP          0.9340    -0.8950    -2.3380 cc         1 TDS       0.130900
     15 OAO         -0.2240    -0.9270    -3.0190 os         1 TDS      -0.194200
     16 CAH          2.0490    -0.3310    -2.8450 cd         1 TDS      -0.277400
     17 CAI          3.3460    -0.2820    -2.0990 c3         1 TDS      -0.025900
     18 CAG          2.0310     0.2780    -4.1740 c          1 TDS       0.601900
     19 OAC          3.0420     0.7990    -4.6290 o          1 TDS      -0.532100
     20 CAF          0.7560     0.2100    -4.8910 ca         1 TDS      -0.260600
     21 CAN         -0.3270    -0.4100    -4.2580 ca         1 TDS       0.184100
     22 CAM         -1.5770    -0.5520    -4.8450 ca         1 TDS       0.035100
     23 OBD         -2.5580    -1.1710    -4.1530 oh         1 TDS      -0.478100
     24 CAL         -1.7480    -0.0460    -6.1290 ca         1 TDS       0.141100
     25 OAK         -2.9760    -0.2210    -6.6410 os         1 TDS      -0.337900
     26 CAJ         -3.2550     0.2310    -7.9550 c3         1 TDS       0.134700
     27 CAD         -0.6990     0.5860    -6.7950 ca         1 TDS      -0.317000
     28 CAE          0.5430     0.7220    -6.1910 ca         1 TDS       0.232100
     29 OAB          1.5720     1.3300    -6.7930 os         1 TDS      -0.276900
     30 CAA          1.3970     1.8480    -8.0970 c3         1 TDS       0.121700
     31 HBC1        -0.7260     1.1170    14.8730 hc         1 TDS       0.031367
     32 HBC2        -1.6660    -0.1380    14.0710 hc         1 TDS       0.031367
     33 HBC3         0.0780    -0.3120    14.2300 hc         1 TDS       0.031367
     34 HBB1        -1.3320     1.8380    12.5570 hc         1 TDS       0.036700
     35 HBB2         0.4020     1.6810    12.7190 hc         1 TDS       0.036700
     36 HBA1         0.2970    -0.5890    11.6780 hc         1 TDS       0.036700
     37 HBA2        -1.4400    -0.4410    11.5230 hc         1 TDS       0.036700
     38 HAZ1        -1.1390     1.5460    10.0320 hc         1 TDS       0.036700
     39 HAZ2         0.5990     1.4070    10.1900 hc         1 TDS       0.036700
     40 HAY1         0.5090    -0.8760     9.1660 hc         1 TDS       0.036700
     41 HAY2        -1.2280    -0.7370     9.0060 hc         1 TDS       0.036700
     42 HAX1        -0.9320     1.2430     7.5040 hc         1 TDS       0.037700
     43 HAX2         0.8060     1.1100     7.6680 hc         1 TDS       0.037700
     44 HAW1         0.7260    -1.1810     6.6580 hc         1 TDS       0.037200
     45 HAW2        -1.0110    -1.0470     6.4920 hc         1 TDS       0.037200
     46 HAV1        -0.7150     0.9230     4.9770 hc         1 TDS       0.037700
     47 HAV2         1.0220     0.7980     5.1490 hc         1 TDS       0.037700
     48 HAU1         0.9600    -1.4970     4.1550 hc         1 TDS       0.037200
     49 HAU2        -0.7770    -1.3780     3.9820 hc         1 TDS       0.037200
     50 HAT1        -0.4980     0.5710     2.4470 hc         1 TDS       0.039700
     51 HAT2         1.2400     0.4850     2.6380 hc         1 TDS       0.039700
     52 HAS1         1.2500    -1.8120     1.6670 hc         1 TDS       0.038700
     53 HAS2        -0.4890    -1.7510     1.4780 hc         1 TDS       0.038700
     54 HAR1        -0.2850     0.1440    -0.1060 hc         1 TDS       0.049200
     55 HAR2         1.4470     0.2040     0.1470 hc         1 TDS       0.049200
     56 HAQ1         1.6770    -2.1100    -0.7650 hc         1 TDS       0.067200
     57 HAQ2        -0.0540    -2.2050    -0.9980 hc         1 TDS       0.067200
     58 HAI1         4.1550    -0.7060    -2.6970 hc         1 TDS       0.044367
     59 HAI2         3.6270     0.7460    -1.8670 hc         1 TDS       0.044367
     60 HAI3         3.3100    -0.8310    -1.1610 hc         1 TDS       0.044367
     61 HBD         -3.3600    -1.2090    -4.6880 ho         1 TDS       0.436000
     62 HAJ1        -4.2890    -0.0330    -8.1550 h1         1 TDS       0.045367
     63 HAJ2        -3.1430     1.3140    -8.0410 h1         1 TDS       0.045367
     64 HAJ3        -2.6140    -0.2570    -8.6930 h1         1 TDS       0.045367
     65 HAD         -0.8650     0.9700    -7.7910 ha         1 TDS       0.144000
     66 HAA1         2.3450     2.3030    -8.3720 h1         1 TDS       0.043367
     67 HAA2         1.1610     1.0640    -8.8210 h1         1 TDS       0.043367
     68 HAA3         0.6170     2.6130    -8.1340 h1         1 TDS       0.043367
@<TRIPOS>BOND
     1     1     2 1   
     2     1    31 1   
     3     1    32 1   
     4     1    33 1   
     5     2     3 1   
     6     2    34 1   
     7     2    35 1   
     8     3     4 1   
     9     3    36 1   
    10     3    37 1   
    11     4     5 1   
    12     4    38 1   
    13     4    39 1   
    14     5     6 1   
    15     5    40 1   
    16     5    41 1   
    17     6     7 1   
    18     6    42 1   
    19     6    43 1   
    20     7     8 1   
    21     7    44 1   
    22     7    45 1   
    23     8     9 1   
    24     8    46 1   
    25     8    47 1   
    26     9    10 1   
    27     9    48 1   
    28     9    49 1   
    29    10    11 1   
    30    10    50 1   
    31    10    51 1   
    32    11    12 1   
    33    11    52 1   
    34    11    53 1   
    35    12    13 1   
    36    12    54 1   
    37    12    55 1   
    38    13    14 1   
    39    13    56 1   
    40    13    57 1   
    41    14    15 1   
    42    14    16 2   
    43    15    21 1   
    44    16    17 1   
    45    16    18 1   
    46    17    58 1   
    47    17    59 1   
    48    17    60 1   
    49    18    19 2   
    50    18    20 1   
    51    20    21 ar  
    52    20    28 ar  
    53    21    22 ar  
    54    22    23 1   
    55    22    24 ar  
    56    23    61 1   
    57    24    25 1   
    58    24    27 ar  
    59    25    26 1   
    60    26    62 1   
    61    26    63 1   
    62    26    64 1   
    63    27    28 ar  
    64    27    65 1   
    65    28    29 1   
    66    29    30 1   
    67    30    66 1   
    68    30    67 1   
    69    30    68 1   
@<TRIPOS>SUBSTRUCTURE
     1 TDS         1 TEMP              0 ****  ****    0 ROOT
