@<TRIPOS>MOLECULE
TDU
   39    41     1     0     0
SMALL
bcc


@<TRIPOS>ATOM
      1 OAA          0.0870     0.8050     0.3710 o          1 TDU      -0.616100
      2 CAB         -5.6480     0.1930    -1.2200 c2         1 TDU      -0.152200
      3 CAC          3.2060    -2.0760    -0.3510 ca         1 TDU      -0.200000
      4 CAD          4.5690    -1.9710    -0.2980 ca         1 TDU      -0.017000
      5 CAE          2.9020     0.2530     0.2920 ca         1 TDU      -0.136000
      6 CAF         -6.9420     0.9450    -1.1250 c6         1 TDU      -0.041200
      7 CAG         -7.5960     0.7920     0.2440 c6         1 TDU      -0.074400
      8 CAH         -6.5630     0.9470     1.3520 c6         1 TDU      -0.072400
      9 CAI         -2.4840    -0.1510    -0.0760 c3         1 TDU       0.120000
     10 CAJ         -5.4840    -0.1220     1.2370 c6         1 TDU      -0.037200
     11 CAK         -3.6910    -1.0450    -0.3430 c3         1 TDU      -0.054200
     12 NAL          6.7160     0.7340     0.4810 nc         1 TDU      -0.110500
     13 NAM          6.4610    -0.4470     0.1510 nd         1 TDU      -0.151400
     14 NAN         -1.2610    -0.9180    -0.1910 ns         1 TDU      -0.593900
     15 NAO          1.0000    -1.2310    -0.1600 ns         1 TDU      -0.488100
     16 SAP          5.3010     1.6710     0.7200 ss         1 TDU       0.101600
     17 CAQ         -4.9830    -0.2960    -0.1730 c2         1 TDU      -0.126400
     18 CAR         -0.0550    -0.3600     0.0310 c          1 TDU       0.796100
     19 CAS          2.3540    -0.9770    -0.0600 ca         1 TDU       0.124600
     20 CAT          5.1280    -0.7380     0.0530 ca         1 TDU      -0.020600
     21 CAU          4.2890     0.3460     0.3400 ca         1 TDU      -0.032100
     22 HAC          2.7600    -3.0230    -0.6260 ha         1 TDU       0.132000
     23 HAD          5.2010    -2.8180    -0.5250 ha         1 TDU       0.154000
     24 HAE          2.2820     1.1040     0.5170 ha         1 TDU       0.186000
     25 HAF         -6.7610     2.0050    -1.3380 hc         1 TDU       0.048700
     26 HAFA        -7.6230     0.6040    -1.9100 hc         1 TDU       0.048700
     27 HAG         -8.4000     1.5210     0.3600 hc         1 TDU       0.041700
     28 HAGA        -8.0580    -0.1980     0.3180 hc         1 TDU       0.041700
     29 HAH         -6.1020     1.9380     1.2820 hc         1 TDU       0.043200
     30 HAHA        -7.0380     0.8940     2.3330 hc         1 TDU       0.043200
     31 HAI         -2.4850     0.6760    -0.7910 h1         1 TDU       0.058200
     32 HAIA        -2.5520     0.2880     0.9220 h1         1 TDU       0.058200
     33 HAJ         -4.6490     0.1180     1.9030 hc         1 TDU       0.046200
     34 HAJA        -5.8670    -1.0870     1.5920 hc         1 TDU       0.046200
     35 HAK         -3.6190    -1.4500    -1.3560 hc         1 TDU       0.046700
     36 HAKA        -3.6650    -1.8970     0.3460 hc         1 TDU       0.046700
     37 HNAN        -1.3280    -1.8690    -0.5160 hn         1 TDU       0.311500
     38 HNAO         0.7660    -2.1740    -0.4290 hn         1 TDU       0.312500
     39 HAB         -5.2410     0.0430    -2.2170 ha         1 TDU       0.118000
@<TRIPOS>BOND
     1     1    18 2   
     2     2     6 1   
     3     2    17 2   
     4     2    39 1   
     5     3     4 ar  
     6     3    19 ar  
     7     3    22 1   
     8     4    20 ar  
     9     4    23 1   
    10     5    19 ar  
    11     5    21 ar  
    12     5    24 1   
    13     6     7 1   
    14     6    25 1   
    15     6    26 1   
    16     7     8 1   
    17     7    27 1   
    18     7    28 1   
    19     8    10 1   
    20     8    29 1   
    21     8    30 1   
    22     9    11 1   
    23     9    14 1   
    24     9    31 1   
    25     9    32 1   
    26    10    17 1   
    27    10    33 1   
    28    10    34 1   
    29    11    17 1   
    30    11    35 1   
    31    11    36 1   
    32    12    13 2   
    33    12    16 1   
    34    13    20 1   
    35    14    18 1   
    36    14    37 1   
    37    15    18 1   
    38    15    19 1   
    39    15    38 1   
    40    16    21 1   
    41    20    21 ar  
@<TRIPOS>SUBSTRUCTURE
     1 TDU         1 TEMP              0 ****  ****    0 ROOT
