@<TRIPOS>MOLECULE
TDU
   39    41     1     0     0
SMALL
No Charge or Current Charge


@<TRIPOS>ATOM
      1 OAA          0.1340     0.9420     0.4010 o          1 TDU      -0.616100
      2 CAB         -5.7430     0.1640    -1.2580 c2         1 TDU      -0.202200
      3 CAC          3.2450    -2.0980    -0.4070 ca         1 TDU      -0.182000
      4 CAD          4.6540    -2.0410    -0.3420 ca         1 TDU       0.001000
      5 CAE          3.0980     0.2340     0.2900 ca         1 TDU      -0.118000
      6 CAF         -7.0980     0.8550    -1.1680 c6         1 TDU      -0.041200
      7 CAG         -7.7500     0.6900     0.2240 c6         1 TDU      -0.074400
      8 CAH         -6.7140     0.9480     1.3390 c6         1 TDU      -0.072400
      9 CAI         -2.4960    -0.0780     0.0060 c3         1 TDU       0.120000
     10 CAJ         -5.5390    -0.0560     1.2430 c6         1 TDU      -0.037200
     11 CAK         -3.7060    -0.9770    -0.3180 c3         1 TDU      -0.054200
     12 NAL          6.8970     0.6090     0.5310 nc         1 TDU      -0.110500
     13 NAM          6.6400    -0.6370     0.1470 nd         1 TDU      -0.151400
     14 NAN         -1.2280    -0.7880    -0.1640 ns         1 TDU      -0.526900
     15 NAO          1.0440    -1.1090    -0.1840 ns         1 TDU      -0.162000
     16 SAP          5.5390     1.5900     0.7810 ss         1 TDU       0.228500
     17 CAQ         -5.0340    -0.2490    -0.1900 c2         1 TDU      -0.126400
     18 CAR          0.0060    -0.2220     0.0470 c          1 TDU       0.662100
     19 CAS          2.4540    -0.9670    -0.0930 ca         1 TDU       0.032000
     20 CAT          5.2680    -0.8390     0.0400 ca         1 TDU      -0.020600
     21 CAU          4.5000     0.2540     0.3440 ca         1 TDU      -0.159000
     22 HAC          2.7670    -3.0280    -0.7040 ha         1 TDU       0.114000
     23 HAD          5.2550    -2.9140    -0.5850 ha         1 TDU       0.136000
     24 HAE          2.5430     1.1330     0.5420 ha         1 TDU       0.168000
     25 HAF         -6.9700     1.9230    -1.3950 hc         1 TDU       0.048700
     26 HAFA        -7.7720     0.4530    -1.9360 hc         1 TDU       0.048700
     27 HAG         -8.6000     1.3780     0.3260 hc         1 TDU       0.041700
     28 HAGA        -8.1530    -0.3270     0.3260 hc         1 TDU       0.041700
     29 HAH         -6.3310     1.9740     1.2520 hc         1 TDU       0.043200
     30 HAHA        -7.1910     0.8730     2.3260 hc         1 TDU       0.043200
     31 HAI         -2.5060     0.7970    -0.6590 h1         1 TDU       0.058200
     32 HAIA        -2.5640     0.2790     1.0420 h1         1 TDU       0.058200
     33 HAJ         -4.7260     0.2950     1.8920 hc         1 TDU       0.046200
     34 HAJA        -5.8520    -1.0300     1.6440 hc         1 TDU       0.046200
     35 HAK         -3.5850    -1.3540    -1.3410 hc         1 TDU       0.046700
     36 HAKA        -3.6930    -1.8580     0.3360 hc         1 TDU       0.046700
     37 HNAN        -1.2500    -1.7580    -0.4550 hn         1 TDU       0.311500
     38 HNAO         0.7470    -2.0310    -0.4700 hn         1 TDU       0.146000
     39 HAB         -5.3640     0.0010    -2.2690 ha         1 TDU       0.168000
@<TRIPOS>BOND
     1     1    18 2   
     2     2     6 1   
     3     2    17 2   
     4     2    39 1   
     5     3     4 ar  
     6     3    19 ar  
     7     3    22 1   
     8     4    20 ar  
     9     4    23 1   
    10     5    19 ar  
    11     5    21 ar  
    12     5    24 1   
    13     6     7 1   
    14     6    25 1   
    15     6    26 1   
    16     7     8 1   
    17     7    27 1   
    18     7    28 1   
    19     8    10 1   
    20     8    29 1   
    21     8    30 1   
    22     9    11 1   
    23     9    14 1   
    24     9    31 1   
    25     9    32 1   
    26    10    17 1   
    27    10    33 1   
    28    10    34 1   
    29    11    17 1   
    30    11    35 1   
    31    11    36 1   
    32    12    13 2   
    33    12    16 1   
    34    13    20 1   
    35    14    18 1   
    36    14    37 1   
    37    15    18 1   
    38    15    19 1   
    39    15    38 1   
    40    16    21 1   
    41    20    21 ar  
@<TRIPOS>SUBSTRUCTURE
     1 TDU         1 TEMP              0 ****  ****    0 ROOT
