@<TRIPOS>MOLECULE
TDV
   65    69     1     0     0
SMALL
bcc


@<TRIPOS>ATOM
      1 C12         -2.5890    -0.8690     0.8250 c3         1 TDV      -0.150400
      2 C13         -4.0640    -1.0980     0.5340 c3         1 TDV      -0.064400
      3 C14         -4.4490    -2.5680     0.7020 c3         1 TDV      -0.033100
      4 C15         -5.9050    -2.8000     0.4070 ca         1 TDV      -0.079300
      5 C20         -6.3480    -2.9370    -0.9070 ca         1 TDV      -0.123500
      6 C16         -6.8480    -2.8400     1.4310 ca         1 TDV      -0.123500
      7 C19         -7.6960    -3.1070    -1.1920 ca         1 TDV      -0.126500
      8 C17         -8.1990    -3.0110     1.1520 ca         1 TDV      -0.126500
      9 C18         -8.6280    -3.1440    -0.1620 ca         1 TDV      -0.129000
     10 C10         -2.1630     0.5690     0.6400 c          1 TDV       0.684100
     11 O11         -2.9580     1.4780     0.4440 o          1 TDV      -0.592100
     12 C32          7.7600    -2.5730    -1.1460 ca         1 TDV       0.140900
     13 C31          7.9380    -2.0800     0.1320 ca         1 TDV      -0.173000
     14 C30          6.8620    -1.4870     0.7730 ca         1 TDV      -0.084000
     15 C33          6.5450    -2.4920    -1.7980 ca         1 TDV      -0.173000
     16 C34          5.4780    -1.8980    -1.1430 ca         1 TDV      -0.084000
     17 C29          5.6200    -1.3850     0.1460 ca         1 TDV      -0.125500
     18 C27          4.4920    -0.7570     0.8290 cc         1 TDV       0.327800
     19 N26          4.4880    -0.5060     2.1590 nc         1 TDV      -0.351000
     20 N25          3.3760     0.0480     2.4860 nd         1 TDV      -0.195800
     21 C28          3.2920    -0.3170     0.3220 cd         1 TDV      -0.231600
     22 N24          2.6420     0.1700     1.3930 na         1 TDV       0.105400
     23 C22          1.3300     0.7690     1.4640 c5         1 TDV       0.038000
     24 C21          0.2150    -0.1360     0.9470 c5         1 TDV       0.099000
     25 C23          1.1730     2.0340     0.6240 c5         1 TDV      -0.101400
     26 C8          -0.3490     2.1710     0.4890 c5         1 TDV       0.036700
     27 C6          -0.7190     2.6600    -0.9100 c          1 TDV       0.674100
     28 O7          -0.7650     1.8690    -1.8430 o          1 TDV      -0.603100
     29 N9          -0.8400     0.8210     0.7030 n          1 TDV      -0.480800
     30 N5          -0.9190     3.9720    -1.0600 n          1 TDV      -0.473800
     31 C4          -1.2880     4.5370    -2.3560 c5         1 TDV       0.101500
     32 C3          -1.7540     5.9450    -2.0060 c5         1 TDV      -0.094400
     33 C2          -0.9100     6.2970    -0.7860 c5         1 TDV      -0.094400
     34 C1          -0.8610     4.9870    -0.0080 c5         1 TDV       0.101500
     35 H121        -2.3590    -1.1760     1.8520 hc         1 TDV       0.058200
     36 H122        -1.9760    -1.5110     0.1850 hc         1 TDV       0.058200
     37 H131        -4.6780    -0.4870     1.1990 hc         1 TDV       0.062200
     38 H132        -4.2960    -0.7790    -0.4850 hc         1 TDV       0.062200
     39 H141        -3.8360    -3.1810     0.0350 hc         1 TDV       0.043700
     40 H142        -4.2200    -2.8940     1.7210 hc         1 TDV       0.043700
     41 H20         -5.6290    -2.9110    -1.7180 ha         1 TDV       0.128000
     42 H16         -6.5240    -2.7390     2.4610 ha         1 TDV       0.128000
     43 H19         -8.0190    -3.2140    -2.2200 ha         1 TDV       0.129500
     44 H17         -8.9150    -3.0440     1.9620 ha         1 TDV       0.129500
     45 H18         -9.6800    -3.2750    -0.3820 ha         1 TDV       0.130000
     46 H33          6.4270    -2.8910    -2.7970 ha         1 TDV       0.151000
     47 H30          6.9980    -1.0950     1.7720 ha         1 TDV       0.143000
     48 H34          4.5220    -1.8500    -1.6490 ha         1 TDV       0.143000
     49 H28          2.8860    -0.3020    -0.6750 h4         1 TDV       0.193000
     50 H22          1.1620     0.9920     2.5170 h1         1 TDV       0.103700
     51 H211         0.5170    -0.6500     0.0280 h1         1 TDV       0.063200
     52 H212        -0.0690    -0.8880     1.6800 h1         1 TDV       0.063200
     53 H231         1.6310     2.9050     1.0880 hc         1 TDV       0.074200
     54 H232         1.6350     1.8900    -0.3560 hc         1 TDV       0.074200
     55 H8          -0.7490     2.8290     1.2630 h1         1 TDV       0.078700
     56 H41C        -0.4220     4.5570    -3.0230 h1         1 TDV       0.052950
     57 H42C        -2.0630     3.9390    -2.8340 h1         1 TDV       0.052950
     58 H11C        -1.7170     4.8960     0.6660 h1         1 TDV       0.052950
     59 H12C         0.0490     4.9030     0.5870 h1         1 TDV       0.052950
     60 H31C        -1.6230     6.6400    -2.8340 hc         1 TDV       0.056200
     61 H32C        -2.8140     5.9360    -1.7420 hc         1 TDV       0.056200
     62 H21C         0.0970     6.5880    -1.0930 hc         1 TDV       0.056200
     63 H22C        -1.3270     7.1090    -0.1900 hc         1 TDV       0.056200
     64 H31          8.9010    -2.1530     0.6210 ha         1 TDV       0.151000
     65 F35          8.7980    -3.1490    -1.7720 f          1 TDV      -0.142900
@<TRIPOS>BOND
     1     1     2 1   
     2     1    10 1   
     3     1    35 1   
     4     1    36 1   
     5     2     3 1   
     6     2    37 1   
     7     2    38 1   
     8     3     4 1   
     9     3    39 1   
    10     3    40 1   
    11     4     5 ar  
    12     4     6 ar  
    13     5     7 ar  
    14     5    41 1   
    15     6     8 ar  
    16     6    42 1   
    17     7     9 ar  
    18     7    43 1   
    19     8     9 ar  
    20     8    44 1   
    21     9    45 1   
    22    10    11 2   
    23    10    29 1   
    24    12    13 ar  
    25    12    15 ar  
    26    12    65 1   
    27    13    14 ar  
    28    13    64 1   
    29    14    17 ar  
    30    14    47 1   
    31    15    16 ar  
    32    15    46 1   
    33    16    17 ar  
    34    16    48 1   
    35    17    18 1   
    36    18    19 1   
    37    18    21 2   
    38    19    20 2   
    39    20    22 1   
    40    21    22 1   
    41    21    49 1   
    42    22    23 1   
    43    23    24 1   
    44    23    25 1   
    45    23    50 1   
    46    24    29 1   
    47    24    51 1   
    48    24    52 1   
    49    25    26 1   
    50    25    53 1   
    51    25    54 1   
    52    26    27 1   
    53    26    29 1   
    54    26    55 1   
    55    27    28 2   
    56    27    30 1   
    57    30    31 1   
    58    30    34 1   
    59    31    32 1   
    60    31    56 1   
    61    31    57 1   
    62    32    33 1   
    63    32    60 1   
    64    32    61 1   
    65    33    34 1   
    66    33    62 1   
    67    33    63 1   
    68    34    58 1   
    69    34    59 1   
@<TRIPOS>SUBSTRUCTURE
     1 TDV         1 TEMP              0 ****  ****    0 ROOT
