@<TRIPOS>MOLECULE
TDV
   65    69     1     0     0
SMALL
No Charge or Current Charge


@<TRIPOS>ATOM
      1 C12         -2.7400    -0.9710     0.7570 c3         1 TDV      -0.150400
      2 C13         -4.2300    -1.3240     0.5220 c3         1 TDV      -0.064400
      3 C14         -4.5220    -2.8320     0.6680 c3         1 TDV      -0.033100
      4 C15         -5.9920    -3.1550     0.4330 ca         1 TDV      -0.079300
      5 C20         -6.4550    -3.4560    -0.8630 ca         1 TDV      -0.105500
      6 C16         -6.9020    -3.1460     1.5080 ca         1 TDV      -0.105500
      7 C19         -7.8120    -3.7480    -1.0810 ca         1 TDV      -0.108500
      8 C17         -8.2600    -3.4390     1.2900 ca         1 TDV      -0.108500
      9 C18         -8.7150    -3.7410    -0.0040 ca         1 TDV      -0.111000
     10 C10         -2.3760     0.5200     0.6100 c          1 TDV       0.617100
     11 O11         -3.2400     1.3820     0.5060 o          1 TDV      -0.592100
     12 C32          7.6360    -2.6050    -1.1210 ca         1 TDV       0.176000
     13 C31          7.8370    -2.0840     0.1640 ca         1 TDV      -0.155000
     14 C30          6.7850    -1.4270     0.8280 ca         1 TDV      -0.066000
     15 C33          6.3870    -2.4790    -1.7450 ca         1 TDV      -0.155000
     16 C34          5.3330    -1.8230    -1.0840 ca         1 TDV      -0.066000
     17 C29          5.5220    -1.2790     0.2090 ca         1 TDV      -0.125500
     18 C27          4.4280    -0.6060     0.9280 cc         1 TDV       0.262500
     19 N26          4.4540    -0.2410     2.2410 nc         1 TDV      -0.351000
     20 N25          3.3130     0.3400     2.5170 nd         1 TDV      -0.195800
     21 C28          3.2590    -0.2510     0.3310 cd         1 TDV      -0.199000
     22 N24          2.5650     0.3460     1.3620 na         1 TDV       0.126800
     23 C22          1.2230     0.9360     1.3440 c5         1 TDV       0.067300
     24 C21          0.0870    -0.0510     0.9670 c5         1 TDV       0.099000
     25 C23          1.0080     2.0560     0.2920 c5         1 TDV      -0.101400
     26 C8          -0.5400     2.2650     0.3350 c5         1 TDV       0.036700
     27 C6          -1.0030     2.8820    -1.0370 c          1 TDV       0.607100
     28 O7          -1.4620     2.2510    -1.9840 o          1 TDV      -0.603100
     29 N9          -1.0100     0.8740     0.6000 n          1 TDV      -0.413800
     30 N5          -0.7520     4.2740    -1.1350 n          1 TDV      -0.406800
     31 C4          -1.0230     5.0170    -2.3880 c5         1 TDV       0.101500
     32 C3          -1.1110     6.4850    -1.8950 c5         1 TDV      -0.094400
     33 C2          -0.1000     6.4890    -0.7250 c5         1 TDV      -0.094400
     34 C1          -0.4780     5.1790     0.0080 c5         1 TDV       0.101500
     35 H121        -2.4090    -1.2950     1.7500 hc         1 TDV       0.058200
     36 H122        -2.0780    -1.5510     0.1040 hc         1 TDV       0.058200
     37 H131        -4.8520    -0.7680     1.2350 hc         1 TDV       0.062200
     38 H132        -4.5250    -0.9970    -0.4830 hc         1 TDV       0.062200
     39 H141        -3.8970    -3.3910    -0.0390 hc         1 TDV       0.043700
     40 H142        -4.2200    -3.1630     1.6700 hc         1 TDV       0.043700
     41 H20         -5.7620    -3.4610    -1.7020 ha         1 TDV       0.110000
     42 H16         -6.5580    -2.9110     2.5130 ha         1 TDV       0.110000
     43 H19         -8.1640    -3.9800    -2.0840 ha         1 TDV       0.111500
     44 H17         -8.9580    -3.4310     2.1250 ha         1 TDV       0.111500
     45 H18         -9.7660    -3.9670    -0.1730 ha         1 TDV       0.112000
     46 H33          6.2360    -2.8920    -2.7390 ha         1 TDV       0.133000
     47 H30          6.9600    -1.0300     1.8260 ha         1 TDV       0.125000
     48 H34          4.3720    -1.7490    -1.5870 ha         1 TDV       0.125000
     49 H28          2.8830    -0.3570    -0.6770 h4         1 TDV       0.175000
     50 H22          1.0130     1.3450     2.3420 h1         1 TDV       0.103700
     51 H211         0.3620    -0.6820     0.1120 h1         1 TDV       0.063200
     52 H212        -0.1700    -0.7010     1.8140 h1         1 TDV       0.063200
     53 H231         1.5720     2.9640     0.5310 hc         1 TDV       0.074200
     54 H232         1.3360     1.7290    -0.7020 hc         1 TDV       0.074200
     55 H8          -0.8490     2.9160     1.1610 h1         1 TDV       0.078700
     56 H41C        -0.1960     4.8810    -3.0970 h1         1 TDV       0.052950
     57 H42C        -1.9540     4.6970    -2.8750 h1         1 TDV       0.052950
     58 H11C        -1.3770     5.3070     0.6260 h1         1 TDV       0.052950
     59 H12C         0.3430     4.8360     0.6500 h1         1 TDV       0.052950
     60 H31C        -0.8590     7.2060    -2.6800 hc         1 TDV       0.056200
     61 H32C        -2.1220     6.7220    -1.5430 hc         1 TDV       0.056200
     62 H21C         0.9330     6.4550    -1.0910 hc         1 TDV       0.056200
     63 H22C        -0.1940     7.3710    -0.0820 hc         1 TDV       0.056200
     64 H31          8.8060    -2.1890     0.6450 ha         1 TDV       0.133000
     65 F35          8.6460    -3.2370    -1.7570 f          1 TDV      -0.178000
@<TRIPOS>BOND
     1     1     2 1   
     2     1    10 1   
     3     1    35 1   
     4     1    36 1   
     5     2     3 1   
     6     2    37 1   
     7     2    38 1   
     8     3     4 1   
     9     3    39 1   
    10     3    40 1   
    11     4     5 ar  
    12     4     6 ar  
    13     5     7 ar  
    14     5    41 1   
    15     6     8 ar  
    16     6    42 1   
    17     7     9 ar  
    18     7    43 1   
    19     8     9 ar  
    20     8    44 1   
    21     9    45 1   
    22    10    11 2   
    23    10    29 1   
    24    12    13 ar  
    25    12    15 ar  
    26    12    65 1   
    27    13    14 ar  
    28    13    64 1   
    29    14    17 ar  
    30    14    47 1   
    31    15    16 ar  
    32    15    46 1   
    33    16    17 ar  
    34    16    48 1   
    35    17    18 1   
    36    18    19 1   
    37    18    21 2   
    38    19    20 2   
    39    20    22 1   
    40    21    22 1   
    41    21    49 1   
    42    22    23 1   
    43    23    24 1   
    44    23    25 1   
    45    23    50 1   
    46    24    29 1   
    47    24    51 1   
    48    24    52 1   
    49    25    26 1   
    50    25    53 1   
    51    25    54 1   
    52    26    27 1   
    53    26    29 1   
    54    26    55 1   
    55    27    28 2   
    56    27    30 1   
    57    30    31 1   
    58    30    34 1   
    59    31    32 1   
    60    31    56 1   
    61    31    57 1   
    62    32    33 1   
    63    32    60 1   
    64    32    61 1   
    65    33    34 1   
    66    33    62 1   
    67    33    63 1   
    68    34    58 1   
    69    34    59 1   
@<TRIPOS>SUBSTRUCTURE
     1 TDV         1 TEMP              0 ****  ****    0 ROOT
