@<TRIPOS>MOLECULE
TDX
   56    58     1     0     0
SMALL
No Charge or Current Charge


@<TRIPOS>ATOM
      1 O4           4.9040    -0.2900    -2.7300 o          1 TDX      -0.563000
      2 C4           3.7160    -0.0170    -2.6650 c          1 TDX       0.597200
      3 N3           2.7990    -0.9650    -2.3480 ns         1 TDX      -0.469500
      4 C2           1.4510    -0.8390    -2.2400 c          1 TDX       0.621000
      5 O2           0.7750    -1.8220    -1.9880 o          1 TDX      -0.531000
      6 C5           3.1400     1.3180    -2.9310 cc         1 TDX      -0.299400
      7 C5M          4.1210     2.4040    -3.3050 c3         1 TDX      -0.007900
      8 C6           1.7790     1.5090    -2.8270 cd         1 TDX       0.023600
      9 N1           0.9350     0.4570    -2.4730 n          1 TDX      -0.311000
     10 C1B         -0.5190     0.7440    -2.3380 c5         1 TDX       0.346700
     11 C2B         -1.2010     0.3710    -3.6930 c5         1 TDX      -0.155400
     12 C3B         -2.1890    -0.7480    -3.2670 c5         1 TDX       0.127300
     13 O3B         -3.3410    -0.7890    -4.1140 oh         1 TDX      -0.699000
     14 O4B         -1.1790    -0.0160    -1.3120 os         1 TDX      -0.405000
     15 C4B         -2.5010    -0.3010    -1.8090 c5         1 TDX       0.164300
     16 C5B         -3.2080    -1.3710    -0.9410 c3         1 TDX       0.232600
     17 O5B         -3.7870    -0.7280     0.2050 os         1 TDX      -0.567400
     18 PA          -3.6400    -1.4140     1.6520 p5         1 TDX       1.457800
     19 O1A         -3.8970    -2.8790     1.5320 o          1 TDX      -0.850000
     20 O2A         -4.5800    -0.7410     2.5940 o          1 TDX      -0.850000
     21 O3A         -2.1320    -0.9980     1.8800 os         1 TDX      -0.689800
     22 PB          -1.5400    -1.6030     3.2150 p5         1 TDX       1.463800
     23 O1B         -1.4450    -3.0940     3.2160 o          1 TDX      -0.847000
     24 O2B         -2.1600    -1.0680     4.4630 o          1 TDX      -0.847000
     25 O1          -0.0560    -1.0080     3.0420 os         1 TDX      -0.578400
     26 C1           0.2550     0.3200     3.4810 c6         1 TDX       0.410300
     27 O5           1.6550     0.3320     3.8410 os         1 TDX      -0.481000
     28 C9           2.5690     0.1210     2.7380 c6         1 TDX       0.132600
     29 C8          -0.0420     1.4640     2.4250 c6         1 TDX       0.157300
     30 O7          -1.4220     1.5110     1.9930 oh         1 TDX      -0.684000
     31 C3           0.9380     1.3250     1.2080 c6         1 TDX       0.175300
     32 O3           0.8350     2.4300     0.2880 oh         1 TDX      -0.671000
     33 C7           2.4140     1.2570     1.6950 c6         1 TDX       0.094300
     34 O6           3.3030     1.0750     0.5750 oh         1 TDX      -0.727000
     35 H3           3.1650    -1.8870    -2.1780 hn         1 TDX       0.337500
     36 H5M1         4.6670     2.1440    -4.2200 hc         1 TDX       0.036033
     37 H5M2         3.6100     3.3580    -3.4840 hc         1 TDX       0.036033
     38 H5M3         4.8540     2.5650    -2.5050 hc         1 TDX       0.036033
     39 H6           1.2770     2.4570    -3.0050 h4         1 TDX       0.199000
     40 H1B         -0.6270     1.8160    -2.1310 h2         1 TDX       0.045700
     41 H2'1        -1.7250     1.2440    -4.1010 hc         1 TDX       0.051700
     42 H2'2        -0.4980     0.0300    -4.4620 hc         1 TDX       0.051700
     43 H3B         -1.6820    -1.7250    -3.2530 h1         1 TDX       0.070700
     44 HO3         -3.0270    -1.0200    -5.0190 ho         1 TDX       0.487000
     45 H4B         -3.0990     0.6210    -1.8030 h1         1 TDX       0.075700
     46 H5'1        -3.9990    -1.8490    -1.5340 h1         1 TDX       0.029200
     47 H5'2        -2.4810    -2.1450    -0.6610 h1         1 TDX       0.029200
     48 H1          -0.3210     0.5450     4.3930 h2         1 TDX       0.073700
     49 H5B          3.5970     0.1110     3.1290 h1         1 TDX       0.068700
     50 H5D          2.3740    -0.8580     2.2730 h1         1 TDX       0.068700
     51 H2           0.1910     2.4190     2.9210 h1         1 TDX       0.002700
     52 HO2         -1.6760     0.5760     1.7630 ho         1 TDX       0.492000
     53 H7           0.7090     0.3780     0.6930 h1         1 TDX       0.100700
     54 HO3A         1.6960     2.4090    -0.1880 ho         1 TDX       0.435000
     55 H4           2.6550     2.2060     2.1970 h1         1 TDX       0.016700
     56 HO4          4.2240     1.1910     0.9080 ho         1 TDX       0.488000
@<TRIPOS>BOND
     1     1     2 2   
     2     2     3 1   
     3     2     6 1   
     4     3     4 1   
     5     3    35 1   
     6     4     5 2   
     7     4     9 1   
     8     6     7 1   
     9     6     8 2   
    10     7    36 1   
    11     7    37 1   
    12     7    38 1   
    13     8     9 1   
    14     8    39 1   
    15     9    10 1   
    16    10    11 1   
    17    10    14 1   
    18    10    40 1   
    19    11    12 1   
    20    11    41 1   
    21    11    42 1   
    22    12    13 1   
    23    12    15 1   
    24    12    43 1   
    25    13    44 1   
    26    14    15 1   
    27    15    16 1   
    28    15    45 1   
    29    16    17 1   
    30    16    46 1   
    31    16    47 1   
    32    17    18 1   
    33    18    19 1   
    34    18    20 1   
    35    18    21 1   
    36    21    22 1   
    37    22    23 1   
    38    22    24 1   
    39    22    25 1   
    40    25    26 1   
    41    26    27 1   
    42    26    29 1   
    43    26    48 1   
    44    27    28 1   
    45    28    33 1   
    46    28    49 1   
    47    28    50 1   
    48    29    30 1   
    49    29    31 1   
    50    29    51 1   
    51    30    52 1   
    52    31    32 1   
    53    31    33 1   
    54    31    53 1   
    55    32    54 1   
    56    33    34 1   
    57    33    55 1   
    58    34    56 1   
@<TRIPOS>SUBSTRUCTURE
     1 TDX         1 TEMP              0 ****  ****    0 ROOT
