@<TRIPOS>MOLECULE
TDX
   56    58     1     0     0
SMALL
bcc


@<TRIPOS>ATOM
      1 O4           3.9240     0.4980    -6.2930 o          1 TDX      -0.638500
      2 C4           2.8010     0.7180    -5.8760 c          1 TDX       0.739700
      3 N3           1.9360    -0.3240    -5.5980 ns         1 TDX      -0.603500
      4 C2           0.6490    -0.2560    -5.1290 c          1 TDX       0.830500
      5 O2          -0.0110    -1.2520    -4.9230 o          1 TDX      -0.606500
      6 C5           2.2490     2.0330    -5.6250 cc         1 TDX      -0.299400
      7 C5M          3.0980     3.2350    -5.8790 c3         1 TDX      -0.007900
      8 C6           0.9890     2.1080    -5.1610 cd         1 TDX       0.073600
      9 N1           0.1850     1.0230    -4.9230 n          1 TDX      -0.378000
     10 C1B         -1.1540     1.2360    -4.3760 c5         1 TDX       0.323500
     11 C2B         -2.3130     0.6190    -5.1650 c5         1 TDX      -0.155400
     12 C3B         -2.8800    -0.4650    -4.2470 c5         1 TDX       0.104100
     13 O3B         -4.2820    -0.5510    -4.2320 oh         1 TDX      -0.576800
     14 O4B         -1.2060     0.7200    -3.0770 os         1 TDX      -0.358600
     15 C4B         -2.4010    -0.0130    -2.8670 c5         1 TDX       0.141100
     16 C5B         -2.1400    -1.1640    -1.9270 c3         1 TDX       0.209400
     17 O5B         -1.7940    -0.6600    -0.6540 os         1 TDX      -0.544200
     18 PA          -1.9280    -1.6900     0.6250 p5         1 TDX       1.457800
     19 O1A         -1.0600    -2.8850     0.3870 o          1 TDX      -0.850000
     20 O2A         -3.3710    -1.8580     0.9840 o          1 TDX      -0.850000
     21 O3A         -1.2010    -0.6450     1.6630 os         1 TDX      -0.689800
     22 PB          -1.4230    -0.6850     3.2900 p5         1 TDX       1.463800
     23 O1B         -1.4840    -2.1050     3.7520 o          1 TDX      -0.847000
     24 O2B         -2.4630     0.3110     3.6940 o          1 TDX      -0.847000
     25 O1           0.0750    -0.0600     3.6200 os         1 TDX      -0.555200
     26 C1           0.2610     0.7350     4.7490 c6         1 TDX       0.363900
     27 O5           0.0070     0.0400     5.9350 os         1 TDX      -0.434600
     28 C9           0.8630    -1.0690     6.1500 c6         1 TDX       0.109400
     29 C8           1.7010     1.2670     4.7290 c6         1 TDX       0.134100
     30 O7           1.9980     1.9320     3.5310 oh         1 TDX      -0.561800
     31 C3           2.6870     0.1240     4.9160 c6         1 TDX       0.152100
     32 O3           3.9840     0.6640     4.9850 oh         1 TDX      -0.608800
     33 C7           2.3230    -0.6320     6.1890 c6         1 TDX       0.071100
     34 O6           3.1840    -1.7450     6.2860 oh         1 TDX      -0.604800
     35 H3           2.2860    -1.2620    -5.7560 hn         1 TDX       0.337500
     36 H5M1         3.4360     3.2710    -6.9150 hc         1 TDX       0.036033
     37 H5M2         2.5460     4.1520    -5.6760 hc         1 TDX       0.036033
     38 H5M3         3.9880     3.2340    -5.2490 hc         1 TDX       0.036033
     39 H6           0.5340     3.0660    -4.9500 h4         1 TDX       0.149000
     40 H1B         -1.2630     2.3230    -4.3540 h2         1 TDX       0.045700
     41 H2'1        -3.0750     1.3870    -5.3150 hc         1 TDX       0.051700
     42 H2'2        -2.0170     0.2540    -6.1460 hc         1 TDX       0.051700
     43 H3B         -2.4370    -1.4330    -4.4970 h1         1 TDX       0.070700
     44 HO3         -4.5630    -1.0290    -5.0180 ho         1 TDX       0.388000
     45 H4B         -3.1680     0.6440    -2.4310 h1         1 TDX       0.075700
     46 H5'1        -3.0530    -1.7720    -1.8900 h1         1 TDX       0.029200
     47 H5'2        -1.3410    -1.7910    -2.3350 h1         1 TDX       0.029200
     48 H1          -0.4440     1.5740     4.7530 h2         1 TDX       0.073700
     49 H5B          0.5720    -1.4980     7.1110 h1         1 TDX       0.068700
     50 H5D          0.7170    -1.8380     5.3850 h1         1 TDX       0.068700
     51 H2           1.7970     1.9430     5.5920 h1         1 TDX       0.002700
     52 HO2          1.4740     2.7380     3.4930 ho         1 TDX       0.393000
     53 H7           2.5960    -0.5670     4.0640 h1         1 TDX       0.100700
     54 HO3A         4.5940    -0.0610     5.1570 ho         1 TDX       0.396000
     55 H4           2.4660     0.0500     7.0400 h1         1 TDX       0.016700
     56 HO4          3.1840    -2.0560     7.1960 ho         1 TDX       0.389000
@<TRIPOS>BOND
     1     1     2 2   
     2     2     3 1   
     3     2     6 1   
     4     3     4 1   
     5     3    35 1   
     6     4     5 2   
     7     4     9 1   
     8     6     7 1   
     9     6     8 2   
    10     7    36 1   
    11     7    37 1   
    12     7    38 1   
    13     8     9 1   
    14     8    39 1   
    15     9    10 1   
    16    10    11 1   
    17    10    14 1   
    18    10    40 1   
    19    11    12 1   
    20    11    41 1   
    21    11    42 1   
    22    12    13 1   
    23    12    15 1   
    24    12    43 1   
    25    13    44 1   
    26    14    15 1   
    27    15    16 1   
    28    15    45 1   
    29    16    17 1   
    30    16    46 1   
    31    16    47 1   
    32    17    18 1   
    33    18    19 1   
    34    18    20 1   
    35    18    21 1   
    36    21    22 1   
    37    22    23 1   
    38    22    24 1   
    39    22    25 1   
    40    25    26 1   
    41    26    27 1   
    42    26    29 1   
    43    26    48 1   
    44    27    28 1   
    45    28    33 1   
    46    28    49 1   
    47    28    50 1   
    48    29    30 1   
    49    29    31 1   
    50    29    51 1   
    51    30    52 1   
    52    31    32 1   
    53    31    33 1   
    54    31    53 1   
    55    32    54 1   
    56    33    34 1   
    57    33    55 1   
    58    34    56 1   
@<TRIPOS>SUBSTRUCTURE
     1 TDX         1 TEMP              0 ****  ****    0 ROOT
