@<TRIPOS>MOLECULE
TDZ
   58    61     1     0     0
SMALL
bcc


@<TRIPOS>ATOM
      1 CAM         -3.2570     2.4470    -0.7170 c6         1 TDZ      -0.106400
      2 CAL         -4.7630     2.2330    -0.6560 c6         1 TDZ      -0.021100
      3 CBB         -5.1300     0.7800    -0.4900 ca         1 TDZ      -0.111300
      4 CAZ         -6.4520     0.3480    -0.6350 ca         1 TDZ      -0.135300
      5 CAC         -7.5740     1.3120    -0.9200 c3         1 TDZ      -0.053800
      6 CBA         -6.7420    -1.0110    -0.5130 ca         1 TDZ       0.114100
      7 OAG         -8.0130    -1.4760    -0.6550 oh         1 TDZ      -0.505100
      8 CAX         -5.7480    -1.9510    -0.2300 ca         1 TDZ      -0.075300
      9 CAA         -6.0830    -3.4130    -0.1180 c3         1 TDZ      -0.037800
     10 CAY         -4.4390    -1.5110    -0.0320 ca         1 TDZ      -0.065300
     11 CAB         -3.3450    -2.4840     0.3090 c3         1 TDZ      -0.040800
     12 CBC         -4.1440    -0.1530    -0.1770 ca         1 TDZ       0.107100
     13 OAR         -2.8380     0.1960    -0.0150 os         1 TDZ      -0.314900
     14 CBE         -2.5430     1.5550     0.2930 c6         1 TDZ       0.166800
     15 CAD         -2.9510     1.8800     1.7260 c3         1 TDZ      -0.111100
     16 CAN         -1.0430     1.6970     0.0920 c3         1 TDZ       0.148400
     17 OAQ         -0.3720     0.8340     0.9850 os         1 TDZ      -0.306900
     18 CAW          0.9730     0.8070     0.9780 ca         1 TDZ       0.155100
     19 CAK          1.5770    -0.0700     1.8830 ca         1 TDZ      -0.191000
     20 CAI          2.9530    -0.1630     1.9470 ca         1 TDZ      -0.076000
     21 CAJ          1.7740     1.5830     0.1450 ca         1 TDZ      -0.191000
     22 CAH          3.1590     1.4740     0.2250 ca         1 TDZ      -0.076000
     23 CAV          3.7710     0.6080     1.1190 ca         1 TDZ      -0.141300
     24 CAO          5.2650     0.4680     1.1790 c3         1 TDZ       0.000900
     25 CBD          5.7410    -0.8110     0.4860 c5         1 TDZ      -0.084600
     26 SAS          5.2730    -0.8500    -1.2710 ss         1 TDZ      -0.213700
     27 CAT          6.9450    -1.0290    -1.8030 c          1 TDZ       0.735100
     28 OAE          7.2870    -1.1100    -2.9500 o          1 TDZ      -0.539500
     29 NAP          7.7860    -1.0580    -0.7160 ns         1 TDZ      -0.618500
     30 CAU          7.2510    -0.9490     0.5370 c          1 TDZ       0.717500
     31 OAF          7.8920    -0.9460     1.5570 o          1 TDZ      -0.562500
     32 HAM1        -2.8880     2.2080    -1.7190 hc         1 TDZ       0.054700
     33 HAM2        -3.0190     3.4960    -0.5320 hc         1 TDZ       0.054700
     34 HAL1        -5.1910     2.8200     0.1620 hc         1 TDZ       0.052700
     35 HAL2        -5.2100     2.6310    -1.5700 hc         1 TDZ       0.052700
     36 HAC1        -8.0040     1.1640    -1.9150 hc         1 TDZ       0.041700
     37 HAC2        -8.3870     1.2100    -0.1950 hc         1 TDZ       0.041700
     38 HAC3        -7.2510     2.3470    -0.8730 hc         1 TDZ       0.041700
     39 HOAG        -8.6000    -0.7740    -0.9520 ho         1 TDZ       0.423000
     40 HAA1        -5.3610    -4.0260    -0.6570 hc         1 TDZ       0.045033
     41 HAA2        -6.0680    -3.7480     0.9220 hc         1 TDZ       0.045033
     42 HAA3        -7.0680    -3.6420    -0.5170 hc         1 TDZ       0.045033
     43 HAB1        -2.8960    -2.9120    -0.5910 hc         1 TDZ       0.046367
     44 HAB2        -2.5440    -2.0090     0.8720 hc         1 TDZ       0.046367
     45 HAB3        -3.7170    -3.3160     0.9040 hc         1 TDZ       0.046367
     46 HAD1        -4.0230     1.7450     1.8760 hc         1 TDZ       0.050700
     47 HAD2        -2.4340     1.2450     2.4440 hc         1 TDZ       0.050700
     48 HAD3        -2.7140     2.9190     1.9580 hc         1 TDZ       0.050700
     49 HAN1        -0.7860     1.4540    -0.9460 h1         1 TDZ       0.045200
     50 HAN2        -0.7590     2.7410     0.2710 h1         1 TDZ       0.045200
     51 HAK          0.9550    -0.6710     2.5350 ha         1 TDZ       0.142500
     52 HAI          3.4020    -0.8480     2.6580 ha         1 TDZ       0.132500
     53 HAJ          1.3460     2.2770    -0.5660 ha         1 TDZ       0.142500
     54 HAH          3.7680     2.0860    -0.4290 ha         1 TDZ       0.132500
     55 HAO1         5.7490     1.3310     0.7180 hc         1 TDZ       0.066700
     56 HAO2         5.5980     0.4240     2.2180 hc         1 TDZ       0.066700
     57 HBD          5.3060    -1.6850     0.9770 h1         1 TDZ       0.115700
     58 HNAP         8.7870    -1.1400    -0.8540 hn         1 TDZ       0.351500
@<TRIPOS>BOND
     1     1     2 1   
     2     1    14 1   
     3     1    32 1   
     4     1    33 1   
     5     2     3 1   
     6     2    34 1   
     7     2    35 1   
     8     3     4 ar  
     9     3    12 ar  
    10     4     5 1   
    11     4     6 ar  
    12     5    36 1   
    13     5    37 1   
    14     5    38 1   
    15     6     7 1   
    16     6     8 ar  
    17     7    39 1   
    18     8     9 1   
    19     8    10 ar  
    20     9    40 1   
    21     9    41 1   
    22     9    42 1   
    23    10    11 1   
    24    10    12 ar  
    25    11    43 1   
    26    11    44 1   
    27    11    45 1   
    28    12    13 1   
    29    13    14 1   
    30    14    15 1   
    31    14    16 1   
    32    15    46 1   
    33    15    47 1   
    34    15    48 1   
    35    16    17 1   
    36    16    49 1   
    37    16    50 1   
    38    17    18 1   
    39    18    19 ar  
    40    18    21 ar  
    41    19    20 ar  
    42    19    51 1   
    43    20    23 ar  
    44    20    52 1   
    45    21    22 ar  
    46    21    53 1   
    47    22    23 ar  
    48    22    54 1   
    49    23    24 1   
    50    24    25 1   
    51    24    55 1   
    52    24    56 1   
    53    25    26 1   
    54    25    30 1   
    55    25    57 1   
    56    26    27 1   
    57    27    28 2   
    58    27    29 1   
    59    29    30 1   
    60    29    58 1   
    61    30    31 2   
@<TRIPOS>SUBSTRUCTURE
     1 TDZ         1 TEMP              0 ****  ****    0 ROOT
