@<TRIPOS>MOLECULE
TDZ
   58    61     1     0     0
SMALL
No Charge or Current Charge


@<TRIPOS>ATOM
      1 CAM         -3.3750     2.4820    -0.6890 c6         1 TDZ      -0.106400
      2 CAL         -4.8950     2.2520    -0.5810 c6         1 TDZ      -0.021100
      3 CBB         -5.2680     0.7650    -0.4400 ca         1 TDZ      -0.111300
      4 CAZ         -6.6100     0.3410    -0.6100 ca         1 TDZ      -0.135300
      5 CAC         -7.7200     1.3690    -0.8940 c3         1 TDZ      -0.053800
      6 CBA         -6.9140    -1.0400    -0.5360 ca         1 TDZ       0.114100
      7 OAG         -8.2030    -1.4560    -0.7390 oh         1 TDZ      -0.544100
      8 CAX         -5.9060    -1.9970    -0.2660 ca         1 TDZ      -0.075300
      9 CAA         -6.2490    -3.4950    -0.2040 c3         1 TDZ      -0.037800
     10 CAY         -4.5750    -1.5640    -0.0430 ca         1 TDZ      -0.065300
     11 CAB         -3.4730    -2.5810     0.2900 c3         1 TDZ      -0.040800
     12 CBC         -4.2630    -0.1890    -0.1370 ca         1 TDZ       0.107100
     13 OAR         -2.9440     0.1970     0.0440 os         1 TDZ      -0.338100
     14 CBE         -2.5970     1.5760     0.2940 c6         1 TDZ       0.190000
     15 CAD         -2.9280     1.8850     1.7900 c3         1 TDZ      -0.111100
     16 CAN         -1.0540     1.7150     0.0530 c3         1 TDZ       0.171600
     17 OAQ         -0.3100     0.8920     0.9760 os         1 TDZ      -0.330100
     18 CAW          1.0680     0.8380     0.9670 ca         1 TDZ       0.155100
     19 CAK          1.6970     0.0030     1.9030 ca         1 TDZ      -0.173000
     20 CAI          3.0980    -0.0950     1.9430 ca         1 TDZ      -0.058000
     21 CAJ          1.8540     1.5830     0.0610 ca         1 TDZ      -0.173000
     22 CAH          3.2560     1.4850     0.1010 ca         1 TDZ      -0.058000
     23 CAV          3.8850     0.6450     1.0410 ca         1 TDZ      -0.141300
     24 CAO          5.4060     0.5340     1.0830 c3         1 TDZ       0.000900
     25 CBD          5.9400    -0.8030     0.5120 c5         1 TDZ      -0.036700
     26 SAS          5.5180    -0.9620    -1.3060 ss         1 TDZ      -0.261600
     27 CAT          7.2550    -1.1770    -1.7390 c          1 TDZ       0.592600
     28 OAE          7.7140    -1.3440    -2.8550 o          1 TDZ      -0.464000
     29 NAP          7.9860    -1.1050    -0.6030 ns         1 TDZ      -0.484500
     30 CAU          7.4760    -0.9140     0.6410 c          1 TDZ       0.575000
     31 OAF          8.1620    -0.8410     1.6470 o          1 TDZ      -0.487000
     32 HAM1        -3.0530     2.2600    -1.7160 hc         1 TDZ       0.054700
     33 HAM2        -3.1410     3.5400    -0.5110 hc         1 TDZ       0.054700
     34 HAL1        -5.2870     2.8080     0.2820 hc         1 TDZ       0.052700
     35 HAL2        -5.3750     2.6850    -1.4690 hc         1 TDZ       0.052700
     36 HAC1        -7.7850     1.5870    -1.9670 hc         1 TDZ       0.041700
     37 HAC2        -8.7080     1.0340    -0.5600 hc         1 TDZ       0.041700
     38 HAC3        -7.5470     2.3180    -0.3720 hc         1 TDZ       0.041700
     39 HOAG        -8.7450    -0.6730    -0.9650 ho         1 TDZ       0.462000
     40 HAA1        -5.4910    -4.1030    -0.7110 hc         1 TDZ       0.045033
     41 HAA2        -6.3140    -3.8360     0.8360 hc         1 TDZ       0.045033
     42 HAA3        -7.2010    -3.7390    -0.6880 hc         1 TDZ       0.045033
     43 HAB1        -3.1400    -3.1040    -0.6140 hc         1 TDZ       0.046367
     44 HAB2        -2.5890    -2.1200     0.7450 hc         1 TDZ       0.046367
     45 HAB3        -3.8210    -3.3340     1.0060 hc         1 TDZ       0.046367
     46 HAD1        -3.9960     1.7710     2.0090 hc         1 TDZ       0.050700
     47 HAD2        -2.3940     1.2110     2.4700 hc         1 TDZ       0.050700
     48 HAD3        -2.6460     2.9110     2.0520 hc         1 TDZ       0.050700
     49 HAN1        -0.8340     1.4250    -0.9820 h1         1 TDZ       0.045200
     50 HAN2        -0.7770     2.7700     0.1780 h1         1 TDZ       0.045200
     51 HAK          1.0940    -0.5710     2.6010 ha         1 TDZ       0.124500
     52 HAI          3.5710    -0.7470     2.6750 ha         1 TDZ       0.114500
     53 HAJ          1.4000     2.2380    -0.6760 ha         1 TDZ       0.124500
     54 HAH          3.8530     2.0600    -0.6040 ha         1 TDZ       0.114500
     55 HAO1         5.8620     1.3720     0.5410 hc         1 TDZ       0.066700
     56 HAO2         5.7410     0.6440     2.1230 hc         1 TDZ       0.066700
     57 HBD          5.5040    -1.6460     1.0620 h1         1 TDZ       0.115700
     58 HNAP         8.9870    -1.1990    -0.6870 hn         1 TDZ       0.351500
@<TRIPOS>BOND
     1     1     2 1   
     2     1    14 1   
     3     1    32 1   
     4     1    33 1   
     5     2     3 1   
     6     2    34 1   
     7     2    35 1   
     8     3     4 ar  
     9     3    12 ar  
    10     4     5 1   
    11     4     6 ar  
    12     5    36 1   
    13     5    37 1   
    14     5    38 1   
    15     6     7 1   
    16     6     8 ar  
    17     7    39 1   
    18     8     9 1   
    19     8    10 ar  
    20     9    40 1   
    21     9    41 1   
    22     9    42 1   
    23    10    11 1   
    24    10    12 ar  
    25    11    43 1   
    26    11    44 1   
    27    11    45 1   
    28    12    13 1   
    29    13    14 1   
    30    14    15 1   
    31    14    16 1   
    32    15    46 1   
    33    15    47 1   
    34    15    48 1   
    35    16    17 1   
    36    16    49 1   
    37    16    50 1   
    38    17    18 1   
    39    18    19 ar  
    40    18    21 ar  
    41    19    20 ar  
    42    19    51 1   
    43    20    23 ar  
    44    20    52 1   
    45    21    22 ar  
    46    21    53 1   
    47    22    23 ar  
    48    22    54 1   
    49    23    24 1   
    50    24    25 1   
    51    24    55 1   
    52    24    56 1   
    53    25    26 1   
    54    25    30 1   
    55    25    57 1   
    56    26    27 1   
    57    27    28 2   
    58    27    29 1   
    59    29    30 1   
    60    29    58 1   
    61    30    31 2   
@<TRIPOS>SUBSTRUCTURE
     1 TDZ         1 TEMP              0 ****  ****    0 ROOT
