@<TRIPOS>MOLECULE
TE0
   28    28     1     0     0
SMALL
abcg2


@<TRIPOS>ATOM
      1 C4          13.2500    -7.6720   -26.0460 c6         1 TE0      -0.181700
      2 C5          14.2530    -6.8000   -26.8060 c6         1 TE0      -0.057900
      3 C6          13.7980    -5.3400   -26.8490 c6         1 TE0       0.206800
      4 C7          13.8220    -9.0820   -25.7440 c          1 TE0       0.713000
      5 N           12.3300    -5.2770   -27.0470 n3         1 TE0      -0.745500
      6 C           11.4030    -2.0070   -29.3590 c3         1 TE0      -0.053100
      7 O           12.3460    -2.8760   -26.4320 o          1 TE0      -0.558000
      8 C1          11.9900    -3.3650   -28.9950 c3         1 TE0      -0.361400
      9 C2          11.7310    -6.4580   -27.6940 c6         1 TE0       0.206800
     10 C3          11.8990    -7.6780   -26.7840 c6         1 TE0      -0.057900
     11 O1          10.2230    -3.9510   -27.1470 o          1 TE0      -0.558000
     12 O2          14.9610    -9.1120   -25.2070 o          1 TE0      -0.733500
     13 O3          13.1200   -10.0850   -26.0270 o          1 TE0      -0.733500
     14 S           11.6570    -3.8150   -27.2940 s6         1 TE0       1.229100
     15 H1          13.1090    -7.2080   -25.0630 hc         1 TE0       0.042700
     16 H2          14.3770    -7.1850   -27.8220 hc         1 TE0       0.052700
     17 H3          15.2290    -6.8400   -26.3260 hc         1 TE0       0.052700
     18 H4          14.3250    -4.8090   -27.6470 h1         1 TE0       0.034700
     19 H5          14.0280    -4.8490   -25.9050 h1         1 TE0       0.034700
     20 H6          11.6210    -1.7930   -30.4060 hc         1 TE0       0.041033
     21 H7          10.3220    -1.9970   -29.2270 hc         1 TE0       0.041033
     22 H8          11.8390    -1.2140   -28.7510 hc         1 TE0       0.041033
     23 H9          11.5650    -4.1670   -29.6000 h1         1 TE0       0.085200
     24 H10         13.0750    -3.3800   -29.1050 h1         1 TE0       0.085200
     25 H11         10.6800    -6.2550   -27.8770 h1         1 TE0       0.034700
     26 H12         12.2100    -6.6280   -28.6630 h1         1 TE0       0.034700
     27 H13         11.0810    -7.7080   -26.0610 hc         1 TE0       0.052700
     28 H14         11.8220    -8.5790   -27.3920 hc         1 TE0       0.052700
@<TRIPOS>BOND
     1     1     2 1   
     2     1     4 1   
     3     1    10 1   
     4     1    15 1   
     5     2     3 1   
     6     2    16 1   
     7     2    17 1   
     8     3     5 1   
     9     3    18 1   
    10     3    19 1   
    11     4    12 1   
    12     4    13 1   
    13     5     9 1   
    14     5    14 1   
    15     6     8 1   
    16     6    20 1   
    17     6    21 1   
    18     6    22 1   
    19     7    14 2   
    20     8    14 1   
    21     8    23 1   
    22     8    24 1   
    23     9    10 1   
    24     9    25 1   
    25     9    26 1   
    26    10    27 1   
    27    10    28 1   
    28    11    14 2   
@<TRIPOS>SUBSTRUCTURE
     1 TE0         1 TEMP              0 ****  ****    0 ROOT
