@<TRIPOS>MOLECULE
TE0
   28    28     1     0     0
SMALL
No Charge or Current Charge


@<TRIPOS>ATOM
      1 C4          13.2960    -7.7100   -26.0410 c6         1 TE0      -0.181700
      2 C5          14.3330    -6.8020   -26.7530 c6         1 TE0      -0.057900
      3 C6          13.8310    -5.3350   -26.8910 c6         1 TE0       0.206800
      4 C7          13.8210    -9.1460   -25.8090 c          1 TE0       0.713000
      5 N           12.3490    -5.2000   -26.8250 n3         1 TE0      -0.745500
      6 C           11.3630    -2.1020   -29.4930 c3         1 TE0      -0.053100
      7 O           12.6940    -2.6740   -26.5850 o          1 TE0      -0.558000
      8 C1          11.8200    -3.4840   -28.9740 c3         1 TE0      -0.361400
      9 C2          11.6540    -6.3150   -27.5070 c6         1 TE0       0.206800
     10 C3          11.9420    -7.6810   -26.8180 c6         1 TE0      -0.057900
     11 O1          10.3470    -3.6060   -26.7300 o          1 TE0      -0.558000
     12 O2          13.9280    -9.5380   -24.6560 o          1 TE0      -0.733500
     13 O3          14.1180    -9.8230   -26.7820 o          1 TE0      -0.733500
     14 S           11.7450    -3.6260   -27.1740 s6         1 TE0       1.229100
     15 H1          13.1120    -7.2770   -25.0480 hc         1 TE0       0.042700
     16 H2          14.5410    -7.2030   -27.7540 hc         1 TE0       0.052700
     17 H3          15.2900    -6.8140   -26.2140 hc         1 TE0       0.052700
     18 H4          14.2190    -4.9280   -27.8370 h1         1 TE0       0.034700
     19 H5          14.2830    -4.7400   -26.0830 h1         1 TE0       0.034700
     20 H6          11.4240    -2.0670   -30.5870 hc         1 TE0       0.041033
     21 H7          10.3250    -1.8980   -29.2030 hc         1 TE0       0.041033
     22 H8          11.9980    -1.3020   -29.0910 hc         1 TE0       0.041033
     23 H9          11.1780    -4.2730   -29.3790 h1         1 TE0       0.085200
     24 H10         12.8600    -3.6760   -29.2600 h1         1 TE0       0.085200
     25 H11         10.5660    -6.1590   -27.5210 h1         1 TE0       0.034700
     26 H12         11.9820    -6.3700   -28.5560 h1         1 TE0       0.034700
     27 H13         11.1270    -7.9170   -26.1200 hc         1 TE0       0.052700
     28 H14         11.9180    -8.4660   -27.5850 hc         1 TE0       0.052700
@<TRIPOS>BOND
     1     1     2 1   
     2     1     4 1   
     3     1    10 1   
     4     1    15 1   
     5     2     3 1   
     6     2    16 1   
     7     2    17 1   
     8     3     5 1   
     9     3    18 1   
    10     3    19 1   
    11     4    12 1   
    12     4    13 1   
    13     5     9 1   
    14     5    14 1   
    15     6     8 1   
    16     6    20 1   
    17     6    21 1   
    18     6    22 1   
    19     7    14 2   
    20     8    14 1   
    21     8    23 1   
    22     8    24 1   
    23     9    10 1   
    24     9    25 1   
    25     9    26 1   
    26    10    27 1   
    27    10    28 1   
    28    11    14 2   
@<TRIPOS>SUBSTRUCTURE
     1 TE0         1 TEMP              0 ****  ****    0 ROOT
