@<TRIPOS>MOLECULE
TE1
   39    39     1     0     0
SMALL
abcg2


@<TRIPOS>ATOM
      1 CAA          4.2330    -1.9390    -1.3990 c3         1 TE1      -0.085100
      2 OAB          1.4470    -1.1280     1.8820 oh         1 TE1      -0.672000
      3 OAC          1.5220     2.4140    -0.1700 os         1 TE1      -0.353100
      4 CAD          1.5850     3.7450    -0.6400 c3         1 TE1       0.155900
      5 CAE          4.6950    -0.3100     0.4480 c3         1 TE1      -0.085100
      6 CAF          3.7040    -1.3310    -0.1030 c3         1 TE1      -0.056700
      7 CAG          2.3230    -0.7200    -0.3500 c3         1 TE1      -0.113400
      8 CAH          1.6270    -0.1440     0.8840 c3         1 TE1       0.243600
      9 CAI          0.3220     0.5230     0.4930 ca         1 TE1      -0.179300
     10 CAJ          0.3200     1.8190    -0.0490 ca         1 TE1       0.149100
     11 CAK         -0.8710     2.4260    -0.4250 ca         1 TE1      -0.245000
     12 OAL         -2.4810    -3.5540     0.4650 o          1 TE1      -0.720500
     13 OAM         -2.1670    -2.3420    -1.3840 o          1 TE1      -0.720500
     14 CAN         -2.6620    -2.5580    -0.2660 c          1 TE1       0.697200
     15 CAO         -0.8950    -0.1120     0.6410 ca         1 TE1       0.001000
     16 CAP         -2.1140     0.4620     0.2690 ca         1 TE1      -0.100800
     17 CAQ         -2.0780     1.7490    -0.2700 ca         1 TE1       0.162100
     18 OAR         -3.1910     2.4010    -0.6720 oh         1 TE1      -0.561100
     19 CAS         -3.6250    -1.5320     0.2910 ce         1 TE1      -0.206200
     20 CAT         -3.3910    -0.2320     0.4880 cf         1 TE1      -0.253200
     21 HAA          5.2070    -2.4090    -1.2470 hc         1 TE1       0.026867
     22 HAAA         3.5550    -2.6990    -1.7910 hc         1 TE1       0.026867
     23 HAAB         4.3530    -1.1730    -2.1690 hc         1 TE1       0.026867
     24 HOAB         1.1650    -1.9480     1.4650 ho         1 TE1       0.453000
     25 HAD          2.6350     4.0280    -0.6250 h1         1 TE1       0.030367
     26 HADA         1.2130     3.8370    -1.6630 h1         1 TE1       0.030367
     27 HADB         1.0250     4.4310     0.0010 h1         1 TE1       0.030367
     28 HAE          4.4010     0.0690     1.4280 hc         1 TE1       0.026867
     29 HAEA         5.6870    -0.7510     0.5580 hc         1 TE1       0.026867
     30 HAEB         4.7850     0.5470    -0.2250 hc         1 TE1       0.026867
     31 HAF          3.6020    -2.1380     0.6300 hc         1 TE1       0.048700
     32 HAG          2.4170     0.0710    -1.1010 hc         1 TE1       0.059700
     33 HAGA         1.6630    -1.4780    -0.7930 hc         1 TE1       0.059700
     34 HAH          2.2750     0.6100     1.3380 h1         1 TE1       0.065700
     35 HAK         -0.8900     3.4200    -0.8540 ha         1 TE1       0.113000
     36 HAO         -0.9260    -1.0910     1.1020 ha         1 TE1       0.144000
     37 HOAR        -3.9520     1.8100    -0.6630 ho         1 TE1       0.473000
     38 HAS         -4.5990    -1.9110     0.5900 ha         1 TE1       0.145000
     39 HAT         -4.2030     0.3620     0.9040 ha         1 TE1       0.129000
@<TRIPOS>BOND
     1     1     6 1   
     2     1    21 1   
     3     1    22 1   
     4     1    23 1   
     5     2     8 1   
     6     2    24 1   
     7     3     4 1   
     8     3    10 1   
     9     4    25 1   
    10     4    26 1   
    11     4    27 1   
    12     5     6 1   
    13     5    28 1   
    14     5    29 1   
    15     5    30 1   
    16     6     7 1   
    17     6    31 1   
    18     7     8 1   
    19     7    32 1   
    20     7    33 1   
    21     8     9 1   
    22     8    34 1   
    23     9    10 ar  
    24     9    15 ar  
    25    10    11 ar  
    26    11    17 ar  
    27    11    35 1   
    28    12    14 1   
    29    13    14 1   
    30    14    19 1   
    31    15    16 ar  
    32    15    36 1   
    33    16    17 ar  
    34    16    20 1   
    35    17    18 1   
    36    18    37 1   
    37    19    20 2   
    38    19    38 1   
    39    20    39 1   
@<TRIPOS>SUBSTRUCTURE
     1 TE1         1 TEMP              0 ****  ****    0 ROOT
