@<TRIPOS>MOLECULE
TE1
   39    39     1     0     0
SMALL
No Charge or Current Charge


@<TRIPOS>ATOM
      1 CAA          3.8970    -2.7930    -0.8250 c3         1 TE1      -0.085100
      2 OAB          1.9210    -0.1670     2.1440 oh         1 TE1      -0.672000
      3 OAC          1.4010     2.9810     0.0830 os         1 TE1      -0.353100
      4 CAD          1.3120     4.3790    -0.2440 c3         1 TE1       0.155900
      5 CAE          4.7650    -0.4490    -0.3570 c3         1 TE1      -0.085100
      6 CAF          3.6960    -1.5070     0.0090 c3         1 TE1      -0.056700
      7 CAG          2.2400    -0.9750    -0.1380 c3         1 TE1      -0.113400
      8 CAH          1.8650     0.2280     0.7700 c3         1 TE1       0.243600
      9 CAI          0.4720     0.7890     0.4600 ca         1 TE1      -0.179300
     10 CAJ          0.2940     2.1540     0.1310 ca         1 TE1       0.149100
     11 CAK         -1.0010     2.6440    -0.1410 ca         1 TE1      -0.245000
     12 OAL         -2.8990    -3.7310    -1.2560 o          1 TE1      -0.720500
     13 OAM         -1.4430    -2.1720    -1.4810 o          1 TE1      -0.720500
     14 CAN         -2.4820    -2.6090    -1.0140 c          1 TE1       0.697200
     15 CAO         -0.6580    -0.0600     0.5040 ca         1 TE1       0.001000
     16 CAP         -1.9490     0.4260     0.2240 ca         1 TE1      -0.100800
     17 CAQ         -2.1070     1.7890    -0.0910 ca         1 TE1       0.162100
     18 OAR         -3.3410     2.2910    -0.3770 oh         1 TE1      -0.561100
     19 CAS         -3.3430    -1.7390    -0.1390 ce         1 TE1      -0.206200
     20 CAT         -3.1240    -0.4690     0.3310 cf         1 TE1      -0.253200
     21 HAA          4.9070    -3.1970    -0.6790 hc         1 TE1       0.026867
     22 HAAA         3.1800    -3.5670    -0.5260 hc         1 TE1       0.026867
     23 HAAB         3.7600    -2.5910    -1.8940 hc         1 TE1       0.026867
     24 HOAB         1.1500    -0.7520     2.2990 ho         1 TE1       0.453000
     25 HAD          2.3080     4.8380    -0.2230 h1         1 TE1       0.030367
     26 HADA         0.8950     4.5180    -1.2500 h1         1 TE1       0.030367
     27 HADB         0.6780     4.9090     0.4780 h1         1 TE1       0.030367
     28 HAE          4.7320     0.4050     0.3300 hc         1 TE1       0.026867
     29 HAEA         5.7720    -0.8790    -0.2950 hc         1 TE1       0.026867
     30 HAEB         4.6150    -0.0780    -1.3780 hc         1 TE1       0.026867
     31 HAF          3.8530    -1.7820     1.0600 hc         1 TE1       0.048700
     32 HAG          2.0790    -0.6800    -1.1820 hc         1 TE1       0.059700
     33 HAGA         1.5460    -1.8010     0.0550 hc         1 TE1       0.059700
     34 HAH          2.6110     1.0130     0.5930 h1         1 TE1       0.065700
     35 HAK         -1.1670     3.6850    -0.3970 ha         1 TE1       0.113000
     36 HAO         -0.5430    -1.1060     0.7760 ha         1 TE1       0.144000
     37 HOAR        -3.9580     1.5300    -0.4050 ho         1 TE1       0.473000
     38 HAS         -4.2890    -2.2060     0.1280 ha         1 TE1       0.145000
     39 HAT         -3.9310    -0.0460     0.9330 ha         1 TE1       0.129000
@<TRIPOS>BOND
     1     1     6 1   
     2     1    21 1   
     3     1    22 1   
     4     1    23 1   
     5     2     8 1   
     6     2    24 1   
     7     3     4 1   
     8     3    10 1   
     9     4    25 1   
    10     4    26 1   
    11     4    27 1   
    12     5     6 1   
    13     5    28 1   
    14     5    29 1   
    15     5    30 1   
    16     6     7 1   
    17     6    31 1   
    18     7     8 1   
    19     7    32 1   
    20     7    33 1   
    21     8     9 1   
    22     8    34 1   
    23     9    10 ar  
    24     9    15 ar  
    25    10    11 ar  
    26    11    17 ar  
    27    11    35 1   
    28    12    14 1   
    29    13    14 1   
    30    14    19 1   
    31    15    16 ar  
    32    15    36 1   
    33    16    17 ar  
    34    16    20 1   
    35    17    18 1   
    36    18    37 1   
    37    19    20 2   
    38    19    38 1   
    39    20    39 1   
@<TRIPOS>SUBSTRUCTURE
     1 TE1         1 TEMP              0 ****  ****    0 ROOT
