@<TRIPOS>MOLECULE
TE2
  117   122     1     0     0
SMALL
bcc


@<TRIPOS>ATOM
      1 CAA          3.6990    -2.4090     2.4310 c3         1 TE2       0.220100
      2 CAB          3.3120     3.9470    -1.8130 c3         1 TE2       0.223100
      3 CAC          5.7410    -5.8120    -0.1090 c3         1 TE2      -0.072100
      4 CAD          3.4980    -5.4520    -1.2210 c3         1 TE2      -0.072100
      5 CAE          6.9270     4.7820     0.8970 c3         1 TE2      -0.073600
      6 CAF          6.4780     2.3980     1.5520 c3         1 TE2      -0.073600
      7 NAG        -13.6200     1.1070     0.0050 n8         1 TE2      -0.892700
      8 OAH         -4.2930     2.5680    -0.0360 o          1 TE2      -0.606100
      9 OAI        -12.8410    -1.2380     0.2210 o          1 TE2      -0.615300
     10 OAJ        -12.8590    -0.2490    -2.0730 o          1 TE2      -0.615300
     11 CAK          5.4000    -2.7040    -1.5450 ce         1 TE2      -0.071000
     12 CAL          5.7730     2.1560    -2.7810 c3         1 TE2       0.019000
     13 CAM          4.7900    -2.6730    -0.2390 ce         1 TE2      -0.217000
     14 CAN          6.1660     2.7650    -1.4620 c2         1 TE2      -0.248200
     15 CAO          2.3990    -6.5180     3.6070 ca         1 TE2      -0.092000
     16 CAP          2.0520     4.7700     2.3320 ca         1 TE2      -0.093000
     17 CAQ          2.6700    -7.5050     2.6700 ca         1 TE2      -0.174000
     18 CAR          3.0780     4.7820     3.2660 ca         1 TE2      -0.173000
     19 CAS          2.7440    -5.1860     3.3820 ca         1 TE2      -0.183000
     20 CAT         -9.2930     1.2230     1.1070 ca         1 TE2      -0.149500
     21 CAU         -9.0310     1.5370    -1.2550 ca         1 TE2      -0.149500
     22 CAV          2.2840     4.4160     1.0040 ca         1 TE2      -0.181000
     23 CAW        -10.5600     0.7050     0.9080 ca         1 TE2      -0.024000
     24 CAX        -10.2990     1.0200    -1.4740 ca         1 TE2      -0.024000
     25 CAY          3.3030    -7.1680     1.4700 ca         1 TE2      -0.072000
     26 CAZ          4.3750     4.4310     2.8820 ca         1 TE2      -0.073000
     27 CBA         -0.1330     0.6300     0.4730 c3         1 TE2      -0.072400
     28 CBB          0.7500     0.1110    -0.6540 c3         1 TE2      -0.072400
     29 CBC         -1.6160     0.3930     0.2250 c3         1 TE2      -0.101400
     30 CBD          2.2310     0.3470    -0.3930 c3         1 TE2      -0.088400
     31 CBE          7.7080    -1.0960    -3.7460 c6         1 TE2      -0.071400
     32 CBF         -2.4790     0.9270     1.3620 c3         1 TE2       0.103000
     33 CBG          3.1240    -0.1560    -1.5140 c3         1 TE2       0.186800
     34 CBH          6.4740    -1.9840    -3.6470 c6         1 TE2      -0.034200
     35 CBI          7.2920     0.3670    -3.7790 c6         1 TE2      -0.021200
     36 CBJ         -6.1070     1.0230     0.2630 c3         1 TE2      -0.158400
     37 CBK         -7.1220     2.1660     0.2570 c3         1 TE2      -0.030100
     38 NBL         -3.8950     0.7010     1.1670 ns         1 TE2      -0.571900
     39 NBM          4.5170     0.1080    -1.1980 nu         1 TE2      -0.735000
     40 CBO         -4.6850     1.5130     0.4480 c          1 TE2       0.664100
     41 CBP          5.7390    -1.6830    -2.3680 cf         1 TE2      -0.097200
     42 CBQ          6.1470     0.6900    -2.8640 c2         1 TE2      -0.189400
     43 CBR          4.3600    -3.7520     0.4540 c2         1 TE2       0.128800
     44 CBS          5.4830    -0.2520    -2.1550 cf         1 TE2       0.136000
     45 CBT          5.4040     3.3490    -0.5260 c2         1 TE2       0.115800
     46 CBU         -8.5120     1.6460     0.0320 ca         1 TE2      -0.026300
     47 CBV        -11.0550     0.6090    -0.3880 ca         1 TE2      -0.276500
     48 CBW          3.3740    -4.8730     2.1860 ca         1 TE2       0.173600
     49 CBX          3.5800     4.0790     0.6410 ca         1 TE2       0.165600
     50 CBY          3.6480    -5.8560     1.2360 ca         1 TE2      -0.151300
     51 CBZ          4.6160     4.0750     1.5730 ca         1 TE2      -0.146300
     52 NCA          4.0580     3.7080    -0.6040 nh         1 TE2      -0.563800
     53 CCB          4.3310    -5.2260     0.0450 c5         1 TE2       0.038500
     54 CCC          5.8940     3.6510     0.8950 c5         1 TE2       0.034500
     55 SCD        -12.6640    -0.0770    -0.6390 sy         1 TE2       1.267200
     56 NOP          3.8180    -3.6510     1.7230 nh         1 TE2      -0.548800
     57 HAA          3.3390    -2.5850     3.4410 h1         1 TE2       0.042700
     58 HAAA         4.6670    -1.9100     2.5040 h1         1 TE2       0.042700
     59 HAAB         3.0010    -1.7280     1.9360 h1         1 TE2       0.042700
     60 HAB          2.7770     3.0650    -2.1730 h1         1 TE2       0.041700
     61 HABA         2.5790     4.7330    -1.6390 h1         1 TE2       0.041700
     62 HABB         3.9790     4.2930    -2.6010 h1         1 TE2       0.041700
     63 HAC          5.6780    -6.8860    -0.2900 hc         1 TE2       0.040200
     64 HACA         6.2810    -5.3720    -0.9470 hc         1 TE2       0.040200
     65 HACB         6.3340    -5.6570     0.7930 hc         1 TE2       0.040200
     66 HAD          3.4100    -6.5200    -1.4260 hc         1 TE2       0.040200
     67 HADA         2.4930    -5.0470    -1.1050 hc         1 TE2       0.040200
     68 HADB         3.9520    -4.9830    -2.0930 hc         1 TE2       0.040200
     69 HAE          7.8330     4.4730     0.3730 hc         1 TE2       0.040700
     70 HAEA         6.5390     5.6770     0.4090 hc         1 TE2       0.040700
     71 HAEB         7.2050     5.0470     1.9190 hc         1 TE2       0.040700
     72 HAF          6.7520     2.5990     2.5890 hc         1 TE2       0.040700
     73 HAFA         5.7620     1.5750     1.5420 hc         1 TE2       0.040700
     74 HAFB         7.3750     2.0690     1.0280 hc         1 TE2       0.040700
     75 HNAG       -14.5520     0.7580     0.2110 hn         1 TE2       0.417800
     76 HNAA       -13.6770     1.9300    -0.5850 hn         1 TE2       0.417800
     77 HAK          5.6570    -3.6860    -1.9260 ha         1 TE2       0.106000
     78 HAL          4.7040     2.2600    -2.9680 hc         1 TE2       0.042700
     79 HALA         6.2680     2.6840    -3.6030 hc         1 TE2       0.042700
     80 HAM          4.6720    -1.6960     0.2110 ha         1 TE2       0.156000
     81 HAN          7.2040     2.6070    -1.1860 ha         1 TE2       0.135000
     82 HAO          1.9060    -6.7820     4.5350 ha         1 TE2       0.127000
     83 HAP          1.0470     5.0330     2.6370 ha         1 TE2       0.129000
     84 HAQ          2.3920    -8.5310     2.8670 ha         1 TE2       0.131000
     85 HAR          2.8730     5.0570     4.2930 ha         1 TE2       0.131000
     86 HAS          2.5170    -4.4340     4.1270 ha         1 TE2       0.134000
     87 HAT         -8.9070     1.3040     2.1150 ha         1 TE2       0.138000
     88 HAU         -8.4410     1.8630    -2.1030 ha         1 TE2       0.138000
     89 HAV          1.4680     4.3960     0.2930 ha         1 TE2       0.137000
     90 HAW        -11.1530     0.3880     1.7560 ha         1 TE2       0.155500
     91 HAX        -10.6830     0.9440    -2.4820 ha         1 TE2       0.155500
     92 HAY          3.5130    -7.9350     0.7330 ha         1 TE2       0.131000
     93 HAZ          5.1780     4.4360     3.6090 ha         1 TE2       0.131000
     94 HBA          0.1620     0.1500     1.4130 hc         1 TE2       0.039700
     95 HBAA         0.0480     1.7020     0.6130 hc         1 TE2       0.039700
     96 HBB          0.5710    -0.9600    -0.7960 hc         1 TE2       0.039700
     97 HBBA         0.4610     0.5960    -1.5920 hc         1 TE2       0.039700
     98 HBC         -1.9150     0.8740    -0.7110 hc         1 TE2       0.047700
     99 HBCA        -1.8020    -0.6780     0.0990 hc         1 TE2       0.047700
    100 HBD          2.4040     1.4190    -0.2400 hc         1 TE2       0.046200
    101 HBDA         2.5250    -0.1420     0.5410 hc         1 TE2       0.046200
    102 HBE          8.3510    -1.2830    -2.8810 hc         1 TE2       0.042200
    103 HBEA         8.2940    -1.3410    -4.6340 hc         1 TE2       0.042200
    104 HBF         -2.1960     0.4460     2.3000 h1         1 TE2       0.054200
    105 HBFA        -2.3070     1.9960     1.4930 h1         1 TE2       0.054200
    106 HBG          2.9850    -1.2330    -1.6400 h1         1 TE2       0.034200
    107 HBGA         2.8210     0.3150    -2.4620 h1         1 TE2       0.034200
    108 HBH          5.8260    -1.7930    -4.5120 hc         1 TE2       0.042700
    109 HBHA         6.7530    -3.0390    -3.6900 hc         1 TE2       0.042700
    110 HBI          8.1470     1.0100    -3.5370 hc         1 TE2       0.040200
    111 HBIA         7.0050     0.6490    -4.8010 hc         1 TE2       0.040200
    112 HBJ         -6.3650     0.2920     1.0330 hc         1 TE2       0.061200
    113 HBJA        -6.1490     0.4900    -0.6920 hc         1 TE2       0.061200
    114 HBK         -7.0790     2.7000     1.2090 hc         1 TE2       0.067700
    115 HBKA        -6.8650     2.8810    -0.5240 hc         1 TE2       0.067700
    116 HNBL        -4.2790    -0.1670     1.5030 hn         1 TE2       0.311500
    117 HNBM         4.6380     1.0650    -0.9020 hn         1 TE2       0.388800
@<TRIPOS>BOND
     1     1    56 1   
     2     1    57 1   
     3     1    58 1   
     4     1    59 1   
     5     2    52 1   
     6     2    60 1   
     7     2    61 1   
     8     2    62 1   
     9     3    53 1   
    10     3    63 1   
    11     3    64 1   
    12     3    65 1   
    13     4    53 1   
    14     4    66 1   
    15     4    67 1   
    16     4    68 1   
    17     5    54 1   
    18     5    69 1   
    19     5    70 1   
    20     5    71 1   
    21     6    54 1   
    22     6    72 1   
    23     6    73 1   
    24     6    74 1   
    25     7    55 1   
    26     7    75 1   
    27     7    76 1   
    28     8    40 2   
    29     9    55 2   
    30    10    55 2   
    31    11    13 1   
    32    11    41 2   
    33    11    77 1   
    34    12    14 1   
    35    12    42 1   
    36    12    78 1   
    37    12    79 1   
    38    13    43 2   
    39    13    80 1   
    40    14    45 2   
    41    14    81 1   
    42    15    17 ar  
    43    15    19 ar  
    44    15    82 1   
    45    16    18 ar  
    46    16    22 ar  
    47    16    83 1   
    48    17    25 ar  
    49    17    84 1   
    50    18    26 ar  
    51    18    85 1   
    52    19    48 ar  
    53    19    86 1   
    54    20    23 ar  
    55    20    46 ar  
    56    20    87 1   
    57    21    24 ar  
    58    21    46 ar  
    59    21    88 1   
    60    22    49 ar  
    61    22    89 1   
    62    23    47 ar  
    63    23    90 1   
    64    24    47 ar  
    65    24    91 1   
    66    25    50 ar  
    67    25    92 1   
    68    26    51 ar  
    69    26    93 1   
    70    27    28 1   
    71    27    29 1   
    72    27    94 1   
    73    27    95 1   
    74    28    30 1   
    75    28    96 1   
    76    28    97 1   
    77    29    32 1   
    78    29    98 1   
    79    29    99 1   
    80    30    33 1   
    81    30   100 1   
    82    30   101 1   
    83    31    34 1   
    84    31    35 1   
    85    31   102 1   
    86    31   103 1   
    87    32    38 1   
    88    32   104 1   
    89    32   105 1   
    90    33    39 1   
    91    33   106 1   
    92    33   107 1   
    93    34    41 1   
    94    34   108 1   
    95    34   109 1   
    96    35    42 1   
    97    35   110 1   
    98    35   111 1   
    99    36    37 1   
   100    36    40 1   
   101    36   112 1   
   102    36   113 1   
   103    37    46 1   
   104    37   114 1   
   105    37   115 1   
   106    38    40 1   
   107    38   116 1   
   108    39    44 1   
   109    39   117 1   
   110    41    44 1   
   111    42    44 2   
   112    43    53 1   
   113    43    56 1   
   114    45    52 1   
   115    45    54 1   
   116    47    55 1   
   117    48    50 ar  
   118    48    56 1   
   119    49    51 ar  
   120    49    52 1   
   121    50    53 1   
   122    51    54 1   
@<TRIPOS>SUBSTRUCTURE
     1 TE2         1 TEMP              0 ****  ****    0 ROOT
