@<TRIPOS>MOLECULE
TE2
  117   122     1     0     0
SMALL
No Charge or Current Charge


@<TRIPOS>ATOM
      1 CAA          2.7010    -1.0570     2.3610 c3         1 TE2       0.220100
      2 CAB          5.6340     3.7690    -2.5430 c3         1 TE2       0.223100
      3 CAC          2.7170    -5.0580    -0.1110 c3         1 TE2      -0.072100
      4 CAD          1.9700    -3.4670    -1.9440 c3         1 TE2      -0.072100
      5 CAE          7.2430     4.0170     1.9640 c3         1 TE2      -0.073600
      6 CAF          5.8440     1.9080     1.9930 c3         1 TE2      -0.073600
      7 NAG        -12.7750    -1.6780     1.9500 n8         1 TE2      -1.003100
      8 OAH         -4.1070     1.7870    -0.7600 o          1 TE2      -0.606100
      9 OAI        -11.5450    -3.7660     2.1420 o          1 TE2      -0.544500
     10 OAJ        -12.3210    -2.8630    -0.1230 o          1 TE2      -0.544500
     11 CAK          5.0100    -2.5710    -1.2490 ce         1 TE2      -0.121000
     12 CAL          7.9030     1.5140    -1.9540 c3         1 TE2       0.019000
     13 CAM          4.1920    -2.0700    -0.1310 ce         1 TE2      -0.267000
     14 CAN          7.5080     2.0950    -0.6060 c2         1 TE2      -0.298200
     15 CAO         -1.4210    -2.8200     1.8650 ca         1 TE2      -0.074000
     16 CAP          2.6060     5.4830     0.2930 ca         1 TE2      -0.075000
     17 CAQ         -1.5190    -3.7920     0.8460 ca         1 TE2      -0.156000
     18 CAR          2.8860     5.2670     1.6590 ca         1 TE2      -0.155000
     19 CAS         -0.1950    -2.1710     2.1040 ca         1 TE2      -0.165000
     20 CAT         -8.1140    -0.9200     2.0280 ca         1 TE2      -0.131500
     21 CAU         -8.8510    -0.0630    -0.1230 ca         1 TE2      -0.131500
     22 CAV          3.4720     4.9770    -0.6950 ca         1 TE2      -0.163000
     23 CAW         -9.2770    -1.7030     2.1190 ca         1 TE2      -0.006000
     24 CAX        -10.0170    -0.8430    -0.0390 ca         1 TE2      -0.006000
     25 CAY         -0.3960    -4.1190     0.0600 ca         1 TE2      -0.054000
     26 CAZ          4.0300     4.5420     2.0440 ca         1 TE2      -0.055000
     27 CBA          0.4630     1.1910    -0.1380 c3         1 TE2      -0.072400
     28 CBB          1.3920     0.6430    -1.2410 c3         1 TE2      -0.072400
     29 CBC         -0.9690     0.6240    -0.2340 c3         1 TE2      -0.101400
     30 CBD          2.8610     1.0830    -1.0780 c3         1 TE2      -0.088400
     31 CBE          8.2760    -2.3850    -2.5060 c6         1 TE2      -0.071400
     32 CBF         -1.8790     1.0860     0.9200 c3         1 TE2       0.103000
     33 CBG          3.8130     0.4130    -2.0900 c3         1 TE2       0.186800
     34 CBH          6.8250    -2.5760    -2.9770 c6         1 TE2      -0.034200
     35 CBI          8.6450    -0.8850    -2.4510 c6         1 TE2      -0.021200
     36 CBJ         -5.4850    -0.0060     0.0970 c3         1 TE2      -0.158400
     37 CBK         -6.6290     0.7480     0.8110 c3         1 TE2      -0.030100
     38 NBL         -3.2010     0.4620     0.8600 ns         1 TE2      -0.504900
     39 NBM          5.2030     0.5200    -1.6260 nu         1 TE2      -0.790200
     40 CBO         -4.2170     0.8480     0.0150 c          1 TE2       0.597100
     41 CBP          5.9180    -1.8470    -1.9790 cf         1 TE2      -0.097200
     42 CBQ          7.4920     0.0440    -2.0410 c2         1 TE2      -0.189400
     43 CBR          2.9810    -2.5100     0.2920 c2         1 TE2       0.128800
     44 CBS          6.2150    -0.4060    -1.8440 cf         1 TE2       0.136000
     45 CBT          6.5250     2.9540    -0.2670 c2         1 TE2       0.115800
     46 CBU         -7.8940    -0.0950     0.9090 ca         1 TE2      -0.026300
     47 CBV        -10.2340    -1.6680     1.0830 ca         1 TE2      -0.276500
     48 CBW          0.9130    -2.5140     1.3120 ca         1 TE2       0.312000
     49 CBX          4.6120     4.2580    -0.2910 ca         1 TE2       0.304000
     50 CBY          0.8210    -3.4600     0.3100 ca         1 TE2      -0.151300
     51 CBZ          4.8820     4.0430     1.0440 ca         1 TE2      -0.146300
     52 NCA          5.6020     3.6460    -1.0670 nh         1 TE2      -0.702200
     53 CCB          2.1540    -3.6440    -0.4100 c5         1 TE2       0.038500
     54 CCC          6.1440     3.2190     1.2200 c5         1 TE2       0.034500
     55 SCD        -11.7210    -2.6680     1.1950 sy         1 TE2       1.125600
     56 NOP          2.2100    -2.0070     1.3370 nh         1 TE2      -0.687200
     57 HAA          1.9480    -0.8660     3.1340 h1         1 TE2       0.042700
     58 HAAA         3.5900    -1.4670     2.8580 h1         1 TE2       0.042700
     59 HAAB         2.9670    -0.0960     1.9060 h1         1 TE2       0.042700
     60 HAB          5.4280     2.8040    -3.0220 h1         1 TE2       0.041700
     61 HABA         4.8890     4.4830    -2.9100 h1         1 TE2       0.041700
     62 HABB         6.6150     4.1350    -2.8710 h1         1 TE2       0.041700
     63 HAC          2.0410    -5.8390    -0.4790 hc         1 TE2       0.040200
     64 HACA         3.6930    -5.2250    -0.5760 hc         1 TE2       0.040200
     65 HACB         2.8370    -5.2090     0.9680 hc         1 TE2       0.040200
     66 HAD          1.2590    -4.2000    -2.3430 hc         1 TE2       0.040200
     67 HADA         1.5810    -2.4730    -2.1860 hc         1 TE2       0.040200
     68 HADB         2.9030    -3.6010    -2.4990 hc         1 TE2       0.040200
     69 HAE          8.1750     3.4450     2.0320 hc         1 TE2       0.040700
     70 HAEA         7.4660     4.9550     1.4410 hc         1 TE2       0.040700
     71 HAEB         6.9310     4.2720     2.9840 hc         1 TE2       0.040700
     72 HAF          5.4650     2.1150     3.0010 hc         1 TE2       0.040700
     73 HAFA         5.0880     1.3110     1.4700 hc         1 TE2       0.040700
     74 HAFB         6.7400     1.2850     2.1010 hc         1 TE2       0.040700
     75 HNAG       -13.0830    -2.2830     2.7080 hn         1 TE2       0.473000
     76 HNAA       -13.5620    -1.7240     1.3070 hn         1 TE2       0.473000
     77 HAK          4.9220    -3.6310    -1.4720 ha         1 TE2       0.156000
     78 HAL          7.4880     2.0550    -2.8050 hc         1 TE2       0.042700
     79 HALA         8.9890     1.6190    -2.0670 hc         1 TE2       0.042700
     80 HAM          4.6280    -1.2180     0.3870 ha         1 TE2       0.206000
     81 HAN          8.0900     1.6440     0.1970 ha         1 TE2       0.185000
     82 HAO         -2.2940    -2.5730     2.4660 ha         1 TE2       0.109000
     83 HAP          1.7170     6.0400     0.0030 ha         1 TE2       0.111000
     84 HAQ         -2.4690    -4.2910     0.6650 ha         1 TE2       0.113000
     85 HAR          2.2140     5.6600     2.4190 ha         1 TE2       0.113000
     86 HAS         -0.1220    -1.4170     2.8810 ha         1 TE2       0.116000
     87 HAT         -7.3810    -0.9560     2.8300 ha         1 TE2       0.120000
     88 HAU         -8.6910     0.5680    -0.9940 ha         1 TE2       0.120000
     89 HAV          3.2450     5.1380    -1.7430 ha         1 TE2       0.119000
     90 HAW         -9.4310    -2.3330     2.9940 ha         1 TE2       0.137500
     91 HAX        -10.7470    -0.8030    -0.8460 ha         1 TE2       0.137500
     92 HAY         -0.4740    -4.8690    -0.7240 ha         1 TE2       0.113000
     93 HAZ          4.2460     4.3690     3.0960 ha         1 TE2       0.113000
     94 HBA          0.8810     0.9340     0.8430 hc         1 TE2       0.039700
     95 HBAA         0.4310     2.2870    -0.1960 hc         1 TE2       0.039700
     96 HBB          1.3490    -0.4500    -1.2120 hc         1 TE2       0.039700
     97 HBBA         1.0230     0.9550    -2.2260 hc         1 TE2       0.039700
     98 HBC         -1.4130     0.9210    -1.1920 hc         1 TE2       0.047700
     99 HBCA        -0.9220    -0.4720    -0.2300 hc         1 TE2       0.047700
    100 HBD          2.9340     2.1710    -1.1750 hc         1 TE2       0.046200
    101 HBDA         3.1880     0.8330    -0.0640 hc         1 TE2       0.046200
    102 HBE          8.3900    -2.8270    -1.5060 hc         1 TE2       0.042200
    103 HBEA         8.9700    -2.9220    -3.1670 hc         1 TE2       0.042200
    104 HBF         -1.4140     0.8200     1.8790 h1         1 TE2       0.054200
    105 HBFA        -1.9910     2.1790     0.8910 h1         1 TE2       0.054200
    106 HBG          3.5250    -0.6370    -2.2240 h1         1 TE2       0.034200
    107 HBGA         3.7050     0.9050    -3.0650 h1         1 TE2       0.034200
    108 HBH          6.6850    -2.1630    -3.9850 hc         1 TE2       0.042700
    109 HBHA         6.5850    -3.6470    -3.0320 hc         1 TE2       0.042700
    110 HBI          9.4980    -0.7490    -1.7700 hc         1 TE2       0.040200
    111 HBIA         8.9980    -0.5760    -3.4450 hc         1 TE2       0.040200
    112 HBJ         -5.2820    -0.9310     0.6500 hc         1 TE2       0.061200
    113 HBJA        -5.8120    -0.2490    -0.9210 hc         1 TE2       0.061200
    114 HBK         -6.2960     1.0450     1.8140 hc         1 TE2       0.067700
    115 HBKA        -6.8400     1.6810     0.2730 hc         1 TE2       0.067700
    116 HNBL        -3.3870    -0.3320     1.4610 hn         1 TE2       0.311500
    117 HNBM         5.5440     1.4640    -1.4150 hn         1 TE2       0.444000
@<TRIPOS>BOND
     1     1    56 1   
     2     1    57 1   
     3     1    58 1   
     4     1    59 1   
     5     2    52 1   
     6     2    60 1   
     7     2    61 1   
     8     2    62 1   
     9     3    53 1   
    10     3    63 1   
    11     3    64 1   
    12     3    65 1   
    13     4    53 1   
    14     4    66 1   
    15     4    67 1   
    16     4    68 1   
    17     5    54 1   
    18     5    69 1   
    19     5    70 1   
    20     5    71 1   
    21     6    54 1   
    22     6    72 1   
    23     6    73 1   
    24     6    74 1   
    25     7    55 1   
    26     7    75 1   
    27     7    76 1   
    28     8    40 2   
    29     9    55 2   
    30    10    55 2   
    31    11    13 1   
    32    11    41 2   
    33    11    77 1   
    34    12    14 1   
    35    12    42 1   
    36    12    78 1   
    37    12    79 1   
    38    13    43 2   
    39    13    80 1   
    40    14    45 2   
    41    14    81 1   
    42    15    17 ar  
    43    15    19 ar  
    44    15    82 1   
    45    16    18 ar  
    46    16    22 ar  
    47    16    83 1   
    48    17    25 ar  
    49    17    84 1   
    50    18    26 ar  
    51    18    85 1   
    52    19    48 ar  
    53    19    86 1   
    54    20    23 ar  
    55    20    46 ar  
    56    20    87 1   
    57    21    24 ar  
    58    21    46 ar  
    59    21    88 1   
    60    22    49 ar  
    61    22    89 1   
    62    23    47 ar  
    63    23    90 1   
    64    24    47 ar  
    65    24    91 1   
    66    25    50 ar  
    67    25    92 1   
    68    26    51 ar  
    69    26    93 1   
    70    27    28 1   
    71    27    29 1   
    72    27    94 1   
    73    27    95 1   
    74    28    30 1   
    75    28    96 1   
    76    28    97 1   
    77    29    32 1   
    78    29    98 1   
    79    29    99 1   
    80    30    33 1   
    81    30   100 1   
    82    30   101 1   
    83    31    34 1   
    84    31    35 1   
    85    31   102 1   
    86    31   103 1   
    87    32    38 1   
    88    32   104 1   
    89    32   105 1   
    90    33    39 1   
    91    33   106 1   
    92    33   107 1   
    93    34    41 1   
    94    34   108 1   
    95    34   109 1   
    96    35    42 1   
    97    35   110 1   
    98    35   111 1   
    99    36    37 1   
   100    36    40 1   
   101    36   112 1   
   102    36   113 1   
   103    37    46 1   
   104    37   114 1   
   105    37   115 1   
   106    38    40 1   
   107    38   116 1   
   108    39    44 1   
   109    39   117 1   
   110    41    44 1   
   111    42    44 2   
   112    43    53 1   
   113    43    56 1   
   114    45    52 1   
   115    45    54 1   
   116    47    55 1   
   117    48    50 ar  
   118    48    56 1   
   119    49    51 ar  
   120    49    52 1   
   121    50    53 1   
   122    51    54 1   
@<TRIPOS>SUBSTRUCTURE
     1 TE2         1 TEMP              0 ****  ****    0 ROOT
