@<TRIPOS>MOLECULE
TE4
   43    43     1     0     0
SMALL
abcg2


@<TRIPOS>ATOM
      1 O2           2.1520     2.6930    -0.0510 o          1 TE4      -0.514000
      2 C7           1.9210     1.5140     0.1160 c          1 TE4       0.617700
      3 O1           2.8730     0.6170     0.3440 os         1 TE4      -0.431100
      4 C8           4.2270     1.0660     0.3900 c3         1 TE4       0.169600
      5 C9           5.1000    -0.1180     0.7390 c3         1 TE4       0.162800
      6 N1           5.0420    -1.2030    -0.2160 n3         1 TE4      -0.705600
      7 C14          5.6150    -0.8530    -1.4970 c3         1 TE4       0.150100
      8 C15          5.6610    -2.3950     0.3210 c3         1 TE4       0.150100
      9 C4           0.5780     0.9210     0.0920 ca         1 TE4      -0.216600
     10 C5           0.3500    -0.4560     0.2190 ca         1 TE4       0.003000
     11 C6          -0.9250    -0.9690     0.1990 ca         1 TE4      -0.227500
     12 C1          -2.0470    -0.1260     0.0560 ca         1 TE4       0.378000
     13 C2          -1.8170     1.2580    -0.0750 ca         1 TE4      -0.227500
     14 C3          -0.5310     1.7560    -0.0570 ca         1 TE4       0.003000
     15 N2          -3.2900    -0.6500     0.0520 nu         1 TE4      -0.978200
     16 C10         -4.5050     0.1090    -0.1210 c3         1 TE4       0.230800
     17 C11         -5.7160    -0.8100    -0.0880 c3         1 TE4      -0.096400
     18 C12         -7.0260    -0.0470    -0.2340 c3         1 TE4      -0.072400
     19 C13         -8.2370    -0.9690    -0.2060 c3         1 TE4      -0.090100
     20 H1           4.5080     1.5130    -0.5670 h1         1 TE4       0.047700
     21 H2           4.3500     1.8340     1.1570 h1         1 TE4       0.047700
     22 H3           6.1260     0.2690     0.8720 h1         1 TE4       0.039200
     23 H4           4.7900    -0.5010     1.7150 h1         1 TE4       0.039200
     24 H6           6.6760    -0.5630    -1.4350 h1         1 TE4       0.030533
     25 H7           5.5430    -1.7030    -2.1760 h1         1 TE4       0.030533
     26 H8           5.0730    -0.0280    -1.9590 h1         1 TE4       0.030533
     27 H9           5.1610    -2.6940     1.2430 h1         1 TE4       0.030533
     28 H10          5.5660    -3.2170    -0.3910 h1         1 TE4       0.030533
     29 H11          6.7320    -2.2710     0.5460 h1         1 TE4       0.030533
     30 H12          1.1790    -1.1410     0.3300 ha         1 TE4       0.129500
     31 H13         -1.0730    -2.0380     0.2970 ha         1 TE4       0.113500
     32 H14         -2.6440     1.9450    -0.1870 ha         1 TE4       0.113500
     33 H15         -0.3870     2.8240    -0.1590 ha         1 TE4       0.129500
     34 H16         -3.3720    -1.6520     0.1050 hn         1 TE4       0.489000
     35 H17         -4.5990     0.8600     0.6710 h1         1 TE4       0.041700
     36 H18         -4.4870     0.6550    -1.0720 h1         1 TE4       0.041700
     37 H19         -5.6320    -1.5500    -0.8910 hc         1 TE4       0.045700
     38 H20         -5.7210    -1.3670     0.8550 hc         1 TE4       0.045700
     39 H21         -7.1080     0.6910     0.5700 hc         1 TE4       0.041700
     40 H22         -7.0160     0.5200    -1.1690 hc         1 TE4       0.041700
     41 H23         -8.1960    -1.6970    -1.0170 hc         1 TE4       0.034367
     42 H24         -8.2870    -1.5230     0.7330 hc         1 TE4       0.034367
     43 H25         -9.1680    -0.4100    -0.3090 hc         1 TE4       0.034367
@<TRIPOS>BOND
     1     1     2 2   
     2     2     3 1   
     3     2     9 1   
     4     3     4 1   
     5     4     5 1   
     6     4    20 1   
     7     4    21 1   
     8     5     6 1   
     9     5    22 1   
    10     5    23 1   
    11     6     7 1   
    12     6     8 1   
    13     7    24 1   
    14     7    25 1   
    15     7    26 1   
    16     8    27 1   
    17     8    28 1   
    18     8    29 1   
    19     9    10 ar  
    20     9    14 ar  
    21    10    11 ar  
    22    10    30 1   
    23    11    12 ar  
    24    11    31 1   
    25    12    13 ar  
    26    12    15 1   
    27    13    14 ar  
    28    13    32 1   
    29    14    33 1   
    30    15    16 1   
    31    15    34 1   
    32    16    17 1   
    33    16    35 1   
    34    16    36 1   
    35    17    18 1   
    36    17    37 1   
    37    17    38 1   
    38    18    19 1   
    39    18    39 1   
    40    18    40 1   
    41    19    41 1   
    42    19    42 1   
    43    19    43 1   
@<TRIPOS>SUBSTRUCTURE
     1 TE4         1 TEMP              0 ****  ****    0 ROOT
