@<TRIPOS>MOLECULE
TE4
   43    43     1     0     0
SMALL
No Charge or Current Charge


@<TRIPOS>ATOM
      1 O2           2.2220     2.7510    -0.0030 o          1 TE4      -0.514000
      2 C7           1.9800     1.5650     0.1840 c          1 TE4       0.617700
      3 O1           2.9440     0.6280     0.4430 os         1 TE4      -0.431100
      4 C8           4.3200     1.0590     0.4830 c3         1 TE4       0.169600
      5 C9           5.2280    -0.1680     0.7750 c3         1 TE4       0.162800
      6 N1           5.1590    -1.2970    -0.2010 n3         1 TE4      -0.705600
      7 C14          5.5320    -0.9140    -1.5840 c3         1 TE4       0.150100
      8 C15          5.9070    -2.4850     0.2660 c3         1 TE4       0.150100
      9 C4           0.5800     1.0030     0.1550 ca         1 TE4      -0.216600
     10 C5           0.3380    -0.3770     0.3430 ca         1 TE4       0.003000
     11 C6          -0.9750    -0.8760     0.3110 ca         1 TE4      -0.227500
     12 C1          -2.0580    -0.0170     0.0920 ca         1 TE4       0.378000
     13 C2          -1.8260     1.3530    -0.0960 ca         1 TE4      -0.227500
     14 C3          -0.5170     1.8630    -0.0660 ca         1 TE4       0.003000
     15 N2          -3.3440    -0.5500     0.0670 nu         1 TE4      -0.978200
     16 C10         -4.6070     0.1710    -0.1440 c3         1 TE4       0.230800
     17 C11         -5.8000    -0.8050    -0.0950 c3         1 TE4      -0.096400
     18 C12         -7.1590    -0.1040    -0.3110 c3         1 TE4      -0.072400
     19 C13         -8.3540    -1.0750    -0.2630 c3         1 TE4      -0.090100
     20 H1           4.6150     1.5200    -0.4690 h1         1 TE4       0.047700
     21 H2           4.4670     1.8040     1.2760 h1         1 TE4       0.047700
     22 H3           6.2640     0.1920     0.8450 h1         1 TE4       0.039200
     23 H4           4.9590    -0.5370     1.7740 h1         1 TE4       0.039200
     24 H6           6.5650    -0.5440    -1.6230 h1         1 TE4       0.030533
     25 H7           5.4500    -1.7760    -2.2590 h1         1 TE4       0.030533
     26 H8           4.8680    -0.1300    -1.9700 h1         1 TE4       0.030533
     27 H9           5.5530    -2.8030     1.2560 h1         1 TE4       0.030533
     28 H10          5.7700    -3.3270    -0.4260 h1         1 TE4       0.030533
     29 H11          6.9820    -2.2690     0.3370 h1         1 TE4       0.030533
     30 H12          1.1600    -1.0700     0.5140 ha         1 TE4       0.129500
     31 H13         -1.1450    -1.9390     0.4570 ha         1 TE4       0.113500
     32 H14         -2.6530     2.0340    -0.2670 ha         1 TE4       0.113500
     33 H15         -0.3590     2.9300    -0.2150 ha         1 TE4       0.129500
     34 H16         -3.4040    -1.5580     0.2150 hn         1 TE4       0.489000
     35 H17         -4.7360     0.9380     0.6310 h1         1 TE4       0.041700
     36 H18         -4.5930     0.6740    -1.1210 h1         1 TE4       0.041700
     37 H19         -5.6670    -1.5760    -0.8640 hc         1 TE4       0.045700
     38 H20         -5.8100    -1.3140     0.8770 hc         1 TE4       0.045700
     39 H21         -7.2960     0.6690     0.4560 hc         1 TE4       0.041700
     40 H22         -7.1540     0.4070    -1.2830 hc         1 TE4       0.041700
     41 H23         -8.2650    -1.8410    -1.0430 hc         1 TE4       0.034367
     42 H24         -8.4080    -1.5770     0.7110 hc         1 TE4       0.034367
     43 H25         -9.2940    -0.5330    -0.4210 hc         1 TE4       0.034367
@<TRIPOS>BOND
     1     1     2 2   
     2     2     3 1   
     3     2     9 1   
     4     3     4 1   
     5     4     5 1   
     6     4    20 1   
     7     4    21 1   
     8     5     6 1   
     9     5    22 1   
    10     5    23 1   
    11     6     7 1   
    12     6     8 1   
    13     7    24 1   
    14     7    25 1   
    15     7    26 1   
    16     8    27 1   
    17     8    28 1   
    18     8    29 1   
    19     9    10 ar  
    20     9    14 ar  
    21    10    11 ar  
    22    10    30 1   
    23    11    12 ar  
    24    11    31 1   
    25    12    13 ar  
    26    12    15 1   
    27    13    14 ar  
    28    13    32 1   
    29    14    33 1   
    30    15    16 1   
    31    15    34 1   
    32    16    17 1   
    33    16    35 1   
    34    16    36 1   
    35    17    18 1   
    36    17    37 1   
    37    17    38 1   
    38    18    19 1   
    39    18    39 1   
    40    18    40 1   
    41    19    41 1   
    42    19    42 1   
    43    19    43 1   
@<TRIPOS>SUBSTRUCTURE
     1 TE4         1 TEMP              0 ****  ****    0 ROOT
