@<TRIPOS>MOLECULE
TE5
   26    27     1     0     0
SMALL
bcc


@<TRIPOS>ATOM
      1 C10          0.6580    -5.5590     5.5880 cp         1 TE5      -0.158500
      2 C13         -1.8660    -6.5890     6.2370 ca         1 TE5      -0.111000
      3 C15         -0.3310    -5.6990     4.6120 ca         1 TE5      -0.091000
      4 C01          6.4540    -3.7160     6.0310 c3         1 TE5       0.136700
      5 C03          4.2170    -4.3710     5.6390 ca         1 TE5       0.718600
      6 C04          3.0210    -4.9070     6.1300 ca         1 TE5      -0.443600
      7 C05          1.9860    -5.0150     5.2170 cp         1 TE5       0.574800
      8 C07          3.3170    -4.1450     3.5880 ca         1 TE5       0.946900
      9 C11          0.3560    -5.9420     6.8960 ca         1 TE5      -0.091000
     10 C12         -0.8930    -6.4510     7.2170 ca         1 TE5      -0.142000
     11 C14         -1.5790    -6.2100     4.9320 ca         1 TE5      -0.142000
     12 N06          2.1350    -4.6330     3.9460 nb         1 TE5      -0.814000
     13 N08          4.3780    -3.9940     4.3920 nb         1 TE5      -0.863000
     14 N09          3.4810    -3.7930     2.2990 nv         1 TE5      -0.953500
     15 H1          -2.8400    -6.9880     6.4880 ha         1 TE5       0.131000
     16 H2          -0.1170    -5.4070     3.5940 ha         1 TE5       0.143000
     17 H3           7.1180    -3.7130     6.8910 h1         1 TE5       0.047700
     18 H4           6.8890    -4.3300     5.2420 h1         1 TE5       0.047700
     19 H5           6.3380    -2.6970     5.6600 h1         1 TE5       0.047700
     20 H6           2.9410    -5.2080     7.1620 ha         1 TE5       0.163000
     21 H7           1.0880    -5.8450     7.6860 ha         1 TE5       0.143000
     22 H8          -1.1050    -6.7400     8.2380 ha         1 TE5       0.131500
     23 H9          -2.3310    -6.3110     4.1600 ha         1 TE5       0.131500
     24 H10          2.6700    -3.7210     1.7090 hn         1 TE5       0.440300
     25 H11          4.2880    -3.2530     2.0390 hn         1 TE5       0.440300
     26 O02          5.2210    -4.2510     6.4960 os         1 TE5      -0.432100
@<TRIPOS>BOND
     1     1     3 ar  
     2     1     7 1   
     3     1     9 ar  
     4     2    10 ar  
     5     2    11 ar  
     6     2    15 1   
     7     3    11 ar  
     8     3    16 1   
     9     4    17 1   
    10     4    18 1   
    11     4    19 1   
    12     4    26 1   
    13     5     6 ar  
    14     5    13 ar  
    15     5    26 1   
    16     6     7 ar  
    17     6    20 1   
    18     7    12 ar  
    19     8    12 ar  
    20     8    13 ar  
    21     8    14 1   
    22     9    10 ar  
    23     9    21 1   
    24    10    22 1   
    25    11    23 1   
    26    14    24 1   
    27    14    25 1   
@<TRIPOS>SUBSTRUCTURE
     1 TE5         1 TEMP              0 ****  ****    0 ROOT
