@<TRIPOS>MOLECULE
TE5
   26    27     1     0     0
SMALL
No Charge or Current Charge


@<TRIPOS>ATOM
      1 C10          0.6200    -5.5680     5.5500 cp         1 TE5      -0.158500
      2 C13         -1.9200    -6.6420     6.2710 ca         1 TE5      -0.093000
      3 C15         -0.3170    -5.9810     4.5620 ca         1 TE5      -0.073000
      4 C01          6.6100    -3.8410     6.0730 c3         1 TE5       0.159900
      5 C03          4.2720    -4.4140     5.5940 ca         1 TE5       0.390300
      6 C04          3.0670    -4.9630     6.0490 ca         1 TE5      -0.295000
      7 C05          1.9610    -5.0000     5.1670 cp         1 TE5       0.246500
      8 C07          3.2930    -4.0160     3.5820 ca         1 TE5       0.420900
      9 C11          0.2360    -5.7070     6.9120 ca         1 TE5      -0.073000
     10 C12         -1.0170    -6.2370     7.2660 ca         1 TE5      -0.124000
     11 C14         -1.5680    -6.5120     4.9190 ca         1 TE5      -0.124000
     12 N06          2.1000    -4.5180     3.9160 nb         1 TE5      -0.288000
     13 N08          4.3860    -3.9300     4.3420 nb         1 TE5      -0.337000
     14 N09          3.4100    -3.5320     2.3270 nv         1 TE5      -1.063900
     15 H1          -2.8890    -7.0520     6.5460 ha         1 TE5       0.113000
     16 H2          -0.0730    -5.8990     3.5050 ha         1 TE5       0.125000
     17 H3           7.3280    -3.9090     6.9000 h1         1 TE5       0.047700
     18 H4           7.0250    -4.3910     5.2180 h1         1 TE5       0.047700
     19 H5           6.5130    -2.7840     5.7940 h1         1 TE5       0.047700
     20 H6           3.0080    -5.3590     7.0550 ha         1 TE5       0.145000
     21 H7           0.9030    -5.3890     7.7090 ha         1 TE5       0.125000
     22 H8          -1.2890    -6.3310     8.3150 ha         1 TE5       0.113500
     23 H9          -2.2660    -6.8230     4.1450 ha         1 TE5       0.113500
     24 H10          2.5580    -3.3600     1.7990 hn         1 TE5       0.495500
     25 H11          4.2090    -2.9410     2.1110 hn         1 TE5       0.495500
     26 O02          5.3360    -4.3880     6.4670 os         1 TE5      -0.455300
@<TRIPOS>BOND
     1     1     3 ar  
     2     1     7 1   
     3     1     9 ar  
     4     2    10 ar  
     5     2    11 ar  
     6     2    15 1   
     7     3    11 ar  
     8     3    16 1   
     9     4    17 1   
    10     4    18 1   
    11     4    19 1   
    12     4    26 1   
    13     5     6 ar  
    14     5    13 ar  
    15     5    26 1   
    16     6     7 ar  
    17     6    20 1   
    18     7    12 ar  
    19     8    12 ar  
    20     8    13 ar  
    21     8    14 1   
    22     9    10 ar  
    23     9    21 1   
    24    10    22 1   
    25    11    23 1   
    26    14    24 1   
    27    14    25 1   
@<TRIPOS>SUBSTRUCTURE
     1 TE5         1 TEMP              0 ****  ****    0 ROOT
