@<TRIPOS>MOLECULE
TE7
   45    48     1     0     0
SMALL
abcg2


@<TRIPOS>ATOM
      1 CAA          6.0390    -3.0390     0.0710 c3         1 TE7       0.147900
      2 CAB         -6.5130    -2.7210    -0.4510 c3         1 TE7       0.148600
      3 CAC         -6.6570    -0.8240     0.9810 c3         1 TE7       0.148600
      4 OAD         -0.1410    -1.7110    -0.0150 o          1 TE7      -0.590100
      5 CAE          4.7230    -0.5560     0.0660 ca         1 TE7      -0.151000
      6 CAF         -2.1060     2.2180    -0.0830 ca         1 TE7      -0.246000
      7 CAG         -1.2610     3.3120    -0.0620 ca         1 TE7       0.051000
      8 CAH          4.0310     0.6410     0.0610 ca         1 TE7      -0.112000
      9 CAI          2.2510     3.1670     0.0330 cc         1 TE7       0.404700
     10 CAJ          2.6450    -1.7600     0.0280 ca         1 TE7      -0.074000
     11 CAK         -3.9320    -0.0390    -0.1280 c3         1 TE7       0.222800
     12 CAL         -4.5520    -1.4260    -0.0230 c3         1 TE7       0.147800
     13 NAM          1.2140     3.9440     0.0060 nd         1 TE7      -0.532100
     14 NAN         -2.4950    -0.1590    -0.0670 nu         1 TE7      -0.793200
     15 OAO          4.6260    -2.9770     0.0510 os         1 TE7      -0.336100
     16 CAP          4.0330    -1.7710     0.0490 ca         1 TE7       0.115100
     17 CAQ         -1.6390     0.8730    -0.0560 ca         1 TE7       0.447000
     18 CAR          0.4420    -0.6280    -0.0040 c          1 TE7       0.622300
     19 CAS          0.1190     3.1020    -0.0180 ca         1 TE7      -0.015600
     20 CAT          1.9320    -0.5650     0.0220 ca         1 TE7      -0.147600
     21 CAU          2.6440     0.6480     0.0390 ca         1 TE7       0.023800
     22 CAV         -0.2340     0.6460    -0.0190 ca         1 TE7      -0.299600
     23 CAW          0.5550     1.7880    -0.0020 ca         1 TE7       0.002800
     24 NAX         -5.9920    -1.3990    -0.1700 n3         1 TE7      -0.713600
     25 NAY          1.9080     1.8280     0.0290 na         1 TE7      -0.067400
     26 HAA          6.4810    -2.5680    -0.8120 h1         1 TE7       0.042033
     27 HAAA         6.4570    -2.5720     0.9670 h1         1 TE7       0.042033
     28 HAAB         6.3010    -4.0930     0.0720 h1         1 TE7       0.042033
     29 HAB         -7.5850    -2.6630    -0.6430 h1         1 TE7       0.033033
     30 HABA        -6.0370    -3.1320    -1.3430 h1         1 TE7       0.033033
     31 HABB        -6.3600    -3.4350     0.3730 h1         1 TE7       0.033033
     32 HAC         -6.4510    -1.3730     1.9140 h1         1 TE7       0.033033
     33 HACA        -6.3600     0.2130     1.1330 h1         1 TE7       0.033033
     34 HACB        -7.7360    -0.8300     0.8230 h1         1 TE7       0.033033
     35 HAE          5.8030    -0.5200     0.0820 ha         1 TE7       0.122000
     36 HAF         -3.1710     2.3970    -0.1230 ha         1 TE7       0.120000
     37 HAG         -1.6780     4.3110    -0.0840 ha         1 TE7       0.128000
     38 HAH          4.5910     1.5660     0.0740 ha         1 TE7       0.121000
     39 HAI          3.2780     3.4960     0.0570 h5         1 TE7       0.067800
     40 HAJ          2.1040    -2.6970     0.0140 ha         1 TE7       0.153000
     41 HAK         -4.2470     0.4250    -1.0680 h1         1 TE7       0.052700
     42 HAKA        -4.2860     0.6040     0.6830 h1         1 TE7       0.052700
     43 HAL         -4.1400    -2.0420    -0.8270 h1         1 TE7       0.042200
     44 HALA        -4.2390    -1.8930     0.9270 h1         1 TE7       0.042200
     45 HNAN        -2.0880    -1.0830    -0.0560 hn         1 TE7       0.367000
@<TRIPOS>BOND
     1     1    15 1   
     2     1    26 1   
     3     1    27 1   
     4     1    28 1   
     5     2    24 1   
     6     2    29 1   
     7     2    30 1   
     8     2    31 1   
     9     3    24 1   
    10     3    32 1   
    11     3    33 1   
    12     3    34 1   
    13     4    18 2   
    14     5     8 ar  
    15     5    16 ar  
    16     5    35 1   
    17     6     7 ar  
    18     6    17 ar  
    19     6    36 1   
    20     7    19 ar  
    21     7    37 1   
    22     8    21 ar  
    23     8    38 1   
    24     9    13 2   
    25     9    25 1   
    26     9    39 1   
    27    10    16 ar  
    28    10    20 ar  
    29    10    40 1   
    30    11    12 1   
    31    11    14 1   
    32    11    41 1   
    33    11    42 1   
    34    12    24 1   
    35    12    43 1   
    36    12    44 1   
    37    13    19 1   
    38    14    17 1   
    39    14    45 1   
    40    15    16 1   
    41    17    22 ar  
    42    18    20 1   
    43    18    22 1   
    44    19    23 ar  
    45    20    21 ar  
    46    21    25 1   
    47    22    23 ar  
    48    23    25 1   
@<TRIPOS>SUBSTRUCTURE
     1 TE7         1 TEMP              0 ****  ****    0 ROOT
