@<TRIPOS>MOLECULE
TE7
   45    48     1     0     0
SMALL
No Charge or Current Charge


@<TRIPOS>ATOM
      1 CAA          6.1200    -3.1240     0.2300 c3         1 TE7       0.147900
      2 CAB         -6.6820    -2.7850    -0.4150 c3         1 TE7       0.148600
      3 CAC         -6.5800    -1.0150     1.2830 c3         1 TE7       0.148600
      4 OAD         -0.2270    -1.6350    -0.2420 o          1 TE7      -0.590100
      5 CAE          4.7440    -0.5610     0.1830 ca         1 TE7      -0.151000
      6 CAF         -2.1040     2.3640    -0.2980 ca         1 TE7      -0.246000
      7 CAG         -1.1960     3.4490    -0.1980 ca         1 TE7       0.051000
      8 CAH          4.0400     0.6550     0.1570 ca         1 TE7      -0.112000
      9 CAI          2.3450     3.1660     0.0820 cc         1 TE7       0.404700
     10 CAJ          2.6480    -1.7820    -0.0150 ca         1 TE7      -0.074000
     11 CAK         -4.0010     0.0040    -0.1080 c3         1 TE7       0.222800
     12 CAL         -4.6460    -1.4050    -0.2380 c3         1 TE7       0.147800
     13 NAM          1.2790     4.0100     0.0170 nd         1 TE7      -0.532100
     14 NAN         -2.5540    -0.0340    -0.3920 nu         1 TE7      -0.793200
     15 OAO          4.6900    -3.0080     0.1190 os         1 TE7      -0.336100
     16 CAP          4.0480    -1.7860     0.0970 ca         1 TE7       0.115100
     17 CAQ         -1.6510     1.0170    -0.2920 ca         1 TE7       0.447000
     18 CAR          0.4030    -0.5850    -0.1660 c          1 TE7       0.622300
     19 CAS          0.1720     3.1540    -0.0930 ca         1 TE7      -0.015600
     20 CAT          1.9240    -0.5700    -0.0440 ca         1 TE7      -0.147600
     21 CAU          2.6340     0.6620     0.0440 ca         1 TE7       0.023800
     22 CAV         -0.2710     0.7580    -0.1880 ca         1 TE7      -0.299600
     23 CAW          0.5640     1.8570    -0.0930 ca         1 TE7       0.002800
     24 NAX         -6.1260    -1.4600    -0.0570 n3         1 TE7      -0.713600
     25 NAY          1.8940     1.8460     0.0140 na         1 TE7      -0.067400
     26 HAA          6.6190    -2.6290    -0.6130 h1         1 TE7       0.042033
     27 HAAA         6.4760    -2.6730     1.1660 h1         1 TE7       0.042033
     28 HAAB         6.4170    -4.1800     0.2280 h1         1 TE7       0.042033
     29 HAB         -7.7790    -2.7760    -0.3530 h1         1 TE7       0.033033
     30 HABA        -6.4060    -3.0580    -1.4420 h1         1 TE7       0.033033
     31 HABB        -6.3060    -3.5640     0.2610 h1         1 TE7       0.033033
     32 HAC         -6.1530    -1.6480     2.0720 h1         1 TE7       0.033033
     33 HACA        -6.2870     0.0250     1.4770 h1         1 TE7       0.033033
     34 HACB        -7.6750    -1.0670     1.3580 h1         1 TE7       0.033033
     35 HAE          5.8270    -0.5320     0.2710 ha         1 TE7       0.122000
     36 HAF         -3.1640     2.5810    -0.3830 ha         1 TE7       0.120000
     37 HAG         -1.5450     4.4790    -0.2030 ha         1 TE7       0.128000
     38 HAH          4.5990     1.5840     0.2250 ha         1 TE7       0.121000
     39 HAI          3.3870     3.4430     0.1730 h5         1 TE7       0.067800
     40 HAJ          2.1250    -2.7340    -0.0810 ha         1 TE7       0.153000
     41 HAK         -4.5010     0.6860    -0.8090 h1         1 TE7       0.052700
     42 HAKA        -4.1610     0.3840     0.9090 h1         1 TE7       0.052700
     43 HAL         -4.3950    -1.7840    -1.2380 h1         1 TE7       0.042200
     44 HALA        -4.1600    -2.0740     0.4850 h1         1 TE7       0.042200
     45 HNAN        -2.1070    -0.9520    -0.3890 hn         1 TE7       0.367000
@<TRIPOS>BOND
     1     1    15 1   
     2     1    26 1   
     3     1    27 1   
     4     1    28 1   
     5     2    24 1   
     6     2    29 1   
     7     2    30 1   
     8     2    31 1   
     9     3    24 1   
    10     3    32 1   
    11     3    33 1   
    12     3    34 1   
    13     4    18 2   
    14     5     8 ar  
    15     5    16 ar  
    16     5    35 1   
    17     6     7 ar  
    18     6    17 ar  
    19     6    36 1   
    20     7    19 ar  
    21     7    37 1   
    22     8    21 ar  
    23     8    38 1   
    24     9    13 2   
    25     9    25 1   
    26     9    39 1   
    27    10    16 ar  
    28    10    20 ar  
    29    10    40 1   
    30    11    12 1   
    31    11    14 1   
    32    11    41 1   
    33    11    42 1   
    34    12    24 1   
    35    12    43 1   
    36    12    44 1   
    37    13    19 1   
    38    14    17 1   
    39    14    45 1   
    40    15    16 1   
    41    17    22 ar  
    42    18    20 1   
    43    18    22 1   
    44    19    23 ar  
    45    20    21 ar  
    46    21    25 1   
    47    22    23 ar  
    48    23    25 1   
@<TRIPOS>SUBSTRUCTURE
     1 TE7         1 TEMP              0 ****  ****    0 ROOT
