@<TRIPOS>MOLECULE
TE8
   31    32     1     0     0
SMALL
No Charge or Current Charge


@<TRIPOS>ATOM
      1 C10          2.8020    -4.6340     4.8970 cp         1 TE8      -0.133000
      2 C13          1.3160    -4.7130     5.0710 cp         1 TE8       0.017000
      3 C15         -0.8360    -5.8130     4.6110 ca         1 TE8      -0.115000
      4 C17         -0.7760    -3.8400     6.0260 ca         1 TE8      -0.115000
      5 C01          8.0370    -5.3600     6.3530 c3         1 TE8      -0.093100
      6 C02          8.0190    -4.1890     5.3330 c3         1 TE8       0.016300
      7 C03          7.9820    -2.7470     5.9540 c          1 TE8       0.705000
      8 C07          5.6320    -4.4880     4.5640 ca         1 TE8       0.226100
      9 C08          4.8110    -4.9290     3.5150 ca         1 TE8      -0.181500
     10 C09          3.4180    -5.0050     3.6760 ca         1 TE8      -0.062000
     11 C11          3.6410    -4.1830     5.9460 ca         1 TE8      -0.062000
     12 C12          5.0350    -4.1090     5.7860 ca         1 TE8      -0.181500
     13 C14          0.5580    -5.7380     4.4480 ca         1 TE8      -0.115000
     14 C16         -1.5030    -4.8640     5.4000 ca         1 TE8      -0.135000
     15 C18          0.6180    -3.7660     5.8630 ca         1 TE8      -0.115000
     16 O04          7.3520    -1.8650     5.3830 o          1 TE8      -0.710500
     17 O05          8.5690    -2.5560     7.0120 o          1 TE8      -0.710500
     18 O06          6.9970    -4.4480     4.3260 os         1 TE8      -0.338100
     19 H1          -1.3970    -6.6100     4.1270 ha         1 TE8       0.099500
     20 H2          -1.2920    -3.1010     6.6360 ha         1 TE8       0.099500
     21 H3           8.9560    -5.3300     6.9490 hc         1 TE8       0.025700
     22 H4           7.1900    -5.3170     7.0460 hc         1 TE8       0.025700
     23 H5           8.0090    -6.3240     5.8320 hc         1 TE8       0.025700
     24 H6           8.9900    -4.2270     4.8230 h1         1 TE8       0.056700
     25 H7           5.2620    -5.2170     2.5690 ha         1 TE8       0.127500
     26 H8           2.8110    -5.3420     2.8390 ha         1 TE8       0.094500
     27 H9           3.2090    -3.8970     6.9020 ha         1 TE8       0.094500
     28 H10          5.6300    -3.7490     6.6180 ha         1 TE8       0.127500
     29 H11          1.0580    -6.4910     3.8440 ha         1 TE8       0.114500
     30 H12         -2.5820    -4.9220     5.5260 ha         1 TE8       0.098000
     31 H13          1.1610    -2.9570     6.3460 ha         1 TE8       0.114500
@<TRIPOS>BOND
     1     1     2 1   
     2     1    10 ar  
     3     1    11 ar  
     4     2    13 ar  
     5     2    15 ar  
     6     3    13 ar  
     7     3    14 ar  
     8     3    19 1   
     9     4    14 ar  
    10     4    15 ar  
    11     4    20 1   
    12     5     6 1   
    13     5    21 1   
    14     5    22 1   
    15     5    23 1   
    16     6     7 1   
    17     6    18 1   
    18     6    24 1   
    19     7    16 1   
    20     7    17 1   
    21     8     9 ar  
    22     8    12 ar  
    23     8    18 1   
    24     9    10 ar  
    25     9    25 1   
    26    10    26 1   
    27    11    12 ar  
    28    11    27 1   
    29    12    28 1   
    30    13    29 1   
    31    14    30 1   
    32    15    31 1   
@<TRIPOS>SUBSTRUCTURE
     1 TE8         1 TEMP              0 ****  ****    0 ROOT
