@<TRIPOS>MOLECULE
TE8
   31    32     1     0     0
SMALL
bcc


@<TRIPOS>ATOM
      1 C10          2.8170    -4.6320     4.9090 cp         1 TE8      -0.133000
      2 C13          1.3520    -4.6990     5.0740 cp         1 TE8       0.017000
      3 C15         -0.7760    -5.7450     4.5700 ca         1 TE8      -0.133000
      4 C17         -0.7020    -3.8600     6.0490 ca         1 TE8      -0.133000
      5 C01          8.0250    -5.2970     6.4220 c3         1 TE8      -0.093100
      6 C02          7.9220    -4.2370     5.3340 c3         1 TE8      -0.006900
      7 C03          7.8210    -2.7710     5.8380 c          1 TE8       0.915600
      8 C07          5.6300    -4.5350     4.6070 ca         1 TE8       0.226100
      9 C08          4.8000    -4.9000     3.5420 ca         1 TE8      -0.199500
     10 C09          3.4280    -4.9440     3.6920 ca         1 TE8      -0.080000
     11 C11          3.6530    -4.2630     5.9610 ca         1 TE8      -0.080000
     12 C12          5.0330    -4.2070     5.8250 ca         1 TE8      -0.199500
     13 C14          0.6010    -5.6790     4.4180 ca         1 TE8      -0.133000
     14 C16         -1.4350    -4.8380     5.3890 ca         1 TE8      -0.153000
     15 C18          0.6740    -3.7910     5.8910 ca         1 TE8      -0.133000
     16 O04          7.1890    -1.9760     5.1250 o          1 TE8      -0.815800
     17 O05          8.4450    -2.5320     6.8890 o          1 TE8      -0.815800
     18 O06          6.9440    -4.5590     4.3470 os         1 TE8      -0.314900
     19 H1          -1.3340    -6.5170     4.0550 ha         1 TE8       0.117500
     20 H2          -1.2040    -3.1410     6.6840 ha         1 TE8       0.117500
     21 H3           8.9320    -5.1340     6.9990 hc         1 TE8       0.025700
     22 H4           7.1900    -5.2880     7.1210 hc         1 TE8       0.025700
     23 H5           8.0880    -6.2930     5.9830 hc         1 TE8       0.025700
     24 H6           8.8550    -4.2830     4.7610 h1         1 TE8       0.056700
     25 H7           5.2460    -5.1430     2.5850 ha         1 TE8       0.145500
     26 H8           2.8230    -5.2130     2.8340 ha         1 TE8       0.112500
     27 H9           3.2290    -4.0270     6.9290 ha         1 TE8       0.112500
     28 H10          5.6150    -3.9170     6.6880 ha         1 TE8       0.145500
     29 H11          1.0990    -6.4120     3.7950 ha         1 TE8       0.132500
     30 H12         -2.5090    -4.8910     5.5100 ha         1 TE8       0.116000
     31 H13          1.2250    -3.0060     6.3950 ha         1 TE8       0.132500
@<TRIPOS>BOND
     1     1     2 1   
     2     1    10 ar  
     3     1    11 ar  
     4     2    13 ar  
     5     2    15 ar  
     6     3    13 ar  
     7     3    14 ar  
     8     3    19 1   
     9     4    14 ar  
    10     4    15 ar  
    11     4    20 1   
    12     5     6 1   
    13     5    21 1   
    14     5    22 1   
    15     5    23 1   
    16     6     7 1   
    17     6    18 1   
    18     6    24 1   
    19     7    16 1   
    20     7    17 1   
    21     8     9 ar  
    22     8    12 ar  
    23     8    18 1   
    24     9    10 ar  
    25     9    25 1   
    26    10    26 1   
    27    11    12 ar  
    28    11    27 1   
    29    12    28 1   
    30    13    29 1   
    31    14    30 1   
    32    15    31 1   
@<TRIPOS>SUBSTRUCTURE
     1 TE8         1 TEMP              0 ****  ****    0 ROOT
