@<TRIPOS>MOLECULE
TE9
   41    44     1     0     0
SMALL
abcg2


@<TRIPOS>ATOM
      1 C8         -34.0690    69.4620   -24.8280 ca         1 TE9      -0.033000
      2 C3         -35.6980    65.6800   -24.4310 cc         1 TE9       0.006000
      3 C4         -36.5730    66.6720   -24.7220 cd         1 TE9      -0.253400
      4 C5         -38.0390    66.2940   -24.9240 c          1 TE9       0.726200
      5 C6         -36.0870    68.0360   -24.7790 c          1 TE9       0.595900
      6 C1         -32.5710    64.1310   -21.6800 ca         1 TE9       0.580900
      7 C2         -33.6660    64.7820   -23.6010 ca         1 TE9       0.598900
      8 C14        -32.3680    67.2900   -24.5660 ca         1 TE9       0.018000
      9 C15        -33.7630    67.0880   -24.4980 ca         1 TE9       0.383000
     10 C16        -33.5530    63.5270   -24.1610 ca         1 TE9       0.103000
     11 N2         -33.2070    65.0620   -22.3880 nb         1 TE9      -0.719000
     12 N3         -34.3410    65.8340   -24.3010 na         1 TE9      -0.646900
     13 O1         -38.6280    66.8210   -25.8960 o          1 TE9      -0.706000
     14 O2         -38.5180    65.4540   -24.1200 o          1 TE9      -0.706000
     15 O3         -36.8180    69.0320   -24.8850 o          1 TE9      -0.545100
     16 C7         -34.6260    68.1850   -24.6760 ca         1 TE9      -0.217600
     17 C9         -32.7230    69.6400   -24.7680 ca         1 TE9       0.044000
     18 F1         -32.2330    70.8940   -24.9410 f          1 TE9      -0.200000
     19 C10        -31.7990    68.5770   -24.6000 ca         1 TE9       0.330000
     20 N4         -30.4530    68.8130   -24.5580 nn         1 TE9      -0.786400
     21 C11        -29.8100    70.1030   -24.1920 cy         1 TE9       0.185300
     22 C12        -28.5960    69.3120   -23.6690 cy         1 TE9       0.120300
     23 O4         -28.1920    69.5590   -22.3380 oh         1 TE9      -0.651000
     24 C13        -29.4320    68.0350   -23.8070 cy         1 TE9       0.185300
     25 CL1        -31.3050    65.9280   -24.8190 cl         1 TE9      -0.217000
     26 F2         -34.0110    63.2870   -25.4080 f          1 TE9      -0.150000
     27 C17        -32.9230    62.5140   -23.4510 ca         1 TE9      -0.108000
     28 C18        -32.4310    62.8360   -22.2130 ca         1 TE9       0.047000
     29 F3         -31.7960    61.9040   -21.4710 f          1 TE9      -0.185000
     30 H4         -34.7210    70.3070   -24.9890 ha         1 TE9       0.154000
     31 H3         -36.0530    64.6760   -24.2510 h4         1 TE9       0.220000
     32 H2         -32.3780    65.3130   -20.0510 hn         1 TE9       0.479500
     33 H1         -31.8400    63.7130   -19.8230 hn         1 TE9       0.479500
     34 H6         -29.6510    70.7790   -25.0300 h1         1 TE9       0.069450
     35 H5         -30.3240    70.6210   -23.3800 h1         1 TE9       0.069450
     36 H7         -27.7420    69.3410   -24.3480 h1         1 TE9       0.048700
     37 H8         -27.6070    70.3270   -22.3300 ho         1 TE9       0.443000
     38 H9         -29.8020    67.6810   -22.8410 h1         1 TE9       0.069450
     39 H10        -28.9840    67.2140   -24.3570 h1         1 TE9       0.069450
     40 H11        -32.8090    61.5210   -23.8630 ha         1 TE9       0.148000
     41 N1         -32.0330    64.4620   -20.4700 nv         1 TE9      -1.050900
@<TRIPOS>BOND
     1     1    16 ar  
     2     1    17 ar  
     3     1    30 1   
     4     2     3 2   
     5     2    12 1   
     6     2    31 1   
     7     3     4 1   
     8     3     5 1   
     9     4    13 1   
    10     4    14 1   
    11     5    15 2   
    12     5    16 1   
    13     6    11 ar  
    14     6    28 ar  
    15     6    41 1   
    16     7    10 ar  
    17     7    11 ar  
    18     7    12 1   
    19     8     9 ar  
    20     8    19 ar  
    21     8    25 1   
    22     9    12 1   
    23     9    16 ar  
    24    10    26 1   
    25    10    27 ar  
    26    17    18 1   
    27    17    19 ar  
    28    19    20 1   
    29    20    21 1   
    30    20    24 1   
    31    21    22 1   
    32    21    34 1   
    33    21    35 1   
    34    22    23 1   
    35    22    24 1   
    36    22    36 1   
    37    23    37 1   
    38    24    38 1   
    39    24    39 1   
    40    27    28 ar  
    41    27    40 1   
    42    28    29 1   
    43    32    41 1   
    44    33    41 1   
@<TRIPOS>SUBSTRUCTURE
     1 TE9         1 TEMP              0 ****  ****    0 ROOT
