@<TRIPOS>MOLECULE
TE9
   41    44     1     0     0
SMALL
No Charge or Current Charge


@<TRIPOS>ATOM
      1 C8         -34.1270    69.4630   -24.3290 ca         1 TE9      -0.033000
      2 C3         -35.5680    65.4540   -24.8870 cc         1 TE9       0.006000
      3 C4         -36.4660    66.5170   -24.9100 cd         1 TE9      -0.253400
      4 C5         -37.8750    66.2050   -25.2940 c          1 TE9       0.726200
      5 C6         -36.0740    67.8960   -24.5430 c          1 TE9       0.595900
      6 C1         -33.0510    64.0460   -21.4970 ca         1 TE9       0.580900
      7 C2         -33.7250    64.7810   -23.5640 ca         1 TE9       0.598900
      8 C14        -32.3350    67.3000   -24.4100 ca         1 TE9       0.018000
      9 C15        -33.7460    67.0610   -24.3890 ca         1 TE9       0.383000
     10 C16        -33.3120    63.5460   -24.1590 ca         1 TE9       0.103000
     11 N2         -33.5960    65.0060   -22.2360 nb         1 TE9      -0.719000
     12 N3         -34.2990    65.7660   -24.3660 na         1 TE9      -0.646900
     13 O1         -38.7140    67.0870   -25.3730 o          1 TE9      -0.706000
     14 O2         -38.1550    65.0420   -25.5510 o          1 TE9      -0.706000
     15 O3         -36.8590    68.8250   -24.3900 o          1 TE9      -0.545100
     16 C7         -34.6200    68.1480   -24.3920 ca         1 TE9      -0.217600
     17 C9         -32.7520    69.7030   -24.2800 ca         1 TE9       0.044000
     18 F1         -32.3500    70.9960   -24.2070 f          1 TE9      -0.200000
     19 C10        -31.8250    68.6280   -24.3240 ca         1 TE9       0.330000
     20 N4         -30.4410    68.8700   -24.3020 nn         1 TE9      -0.786400
     21 C11        -29.6590    70.1390   -24.4680 cy         1 TE9       0.185300
     22 C12        -28.3860    69.2780   -24.1480 cy         1 TE9       0.120300
     23 O4         -27.3650    69.8880   -23.3500 oh         1 TE9      -0.651000
     24 C13        -29.3710    68.2990   -23.4180 cy         1 TE9       0.185300
     25 Cl1        -31.1890    65.9510   -24.6680 cl         1 TE9      -0.217000
     26 F2         -33.4410    63.3250   -25.4920 f          1 TE9      -0.150000
     27 C17        -32.7430    62.5390   -23.3620 ca         1 TE9      -0.108000
     28 C18        -32.6080    62.7960   -21.9920 ca         1 TE9       0.047000
     29 F3         -32.0680    61.8570   -21.1750 f          1 TE9      -0.185000
     30 H4         -34.8070    70.3130   -24.3300 ha         1 TE9       0.154000
     31 H3         -35.8260    64.4130   -25.0840 h4         1 TE9       0.220000
     32 H2         -33.5660    65.2270   -19.9660 hn         1 TE9       0.479500
     33 H1         -32.8950    63.7020   -19.5040 hn         1 TE9       0.479500
     34 H6         -29.6550    70.5770   -25.4730 h1         1 TE9       0.069450
     35 H5         -29.8590    70.9110   -23.7150 h1         1 TE9       0.069450
     36 H7         -27.9430    68.8310   -25.0460 h1         1 TE9       0.048700
     37 H8         -26.8870    70.5320   -23.9200 ho         1 TE9       0.443000
     38 H9         -29.4950    68.5150   -22.3490 h1         1 TE9       0.069450
     39 H10        -29.1040    67.2460   -23.5610 h1         1 TE9       0.069450
     40 H11        -32.4180    61.5960   -23.7930 ha         1 TE9       0.148000
     41 N1         -32.9940    64.4270   -20.2080 nv         1 TE9      -1.050900
@<TRIPOS>BOND
     1     1    16 ar  
     2     1    17 ar  
     3     1    30 1   
     4     2     3 2   
     5     2    12 1   
     6     2    31 1   
     7     3     4 1   
     8     3     5 1   
     9     4    13 1   
    10     4    14 1   
    11     5    15 2   
    12     5    16 1   
    13     6    11 ar  
    14     6    28 ar  
    15     6    41 1   
    16     7    10 ar  
    17     7    11 ar  
    18     7    12 1   
    19     8     9 ar  
    20     8    19 ar  
    21     8    25 1   
    22     9    12 1   
    23     9    16 ar  
    24    10    26 1   
    25    10    27 ar  
    26    17    18 1   
    27    17    19 ar  
    28    19    20 1   
    29    20    21 1   
    30    20    24 1   
    31    21    22 1   
    32    21    34 1   
    33    21    35 1   
    34    22    23 1   
    35    22    24 1   
    36    22    36 1   
    37    23    37 1   
    38    24    38 1   
    39    24    39 1   
    40    27    28 ar  
    41    27    40 1   
    42    28    29 1   
    43    32    41 1   
    44    33    41 1   
@<TRIPOS>SUBSTRUCTURE
     1 TE9         1 TEMP              0 ****  ****    0 ROOT
