@<TRIPOS>MOLECULE
TEA
   23    22     1     0     0
SMALL
abcg2


@<TRIPOS>ATOM
      1 N            0.3570    -0.0680    -2.0430 nx         1 TEA      -0.667000
      2 C11          0.7730    -0.4050    -0.6450 c3         1 TEA       0.098600
      3 C12          2.1250     0.1500    -0.2580 c3         1 TEA      -0.125100
      4 C21          0.1400     1.3960    -2.2760 c3         1 TEA       0.098600
      5 C22         -0.8110     2.0330    -1.2880 c3         1 TEA      -0.125100
      6 C31          1.2720    -0.6170    -3.0950 c3         1 TEA       0.098600
      7 C32          1.4460    -2.1170    -3.0190 c3         1 TEA      -0.125100
      8 HN          -0.5490    -0.5180    -2.1830 hn         1 TEA       0.494000
      9 H111        -0.0080    -0.0300     0.0120 hx         1 TEA       0.095033
     10 H112         0.7530    -1.4900    -0.5640 hx         1 TEA       0.095033
     11 H121         2.3000    -0.1010     0.7860 hc         1 TEA       0.075811
     12 H122         2.9400    -0.2830    -0.8360 hc         1 TEA       0.075811
     13 H123         2.1750     1.2350    -0.3410 hc         1 TEA       0.075811
     14 H211         1.1160     1.8770    -2.2600 hx         1 TEA       0.095033
     15 H212        -0.2490     1.4760    -3.2900 hx         1 TEA       0.095033
     16 H221        -1.0670     3.0240    -1.6580 hc         1 TEA       0.075811
     17 H222        -1.7390     1.4690    -1.1920 hc         1 TEA       0.075811
     18 H223        -0.3720     2.1580    -0.2990 hc         1 TEA       0.075811
     19 H311         0.8320    -0.3300    -4.0480 hx         1 TEA       0.095033
     20 H312         2.2230    -0.0970    -2.9990 hx         1 TEA       0.095033
     21 H321         2.0030    -2.4360    -3.8990 hc         1 TEA       0.075811
     22 H322         2.0090    -2.4370    -2.1440 hc         1 TEA       0.075811
     23 H323         0.4880    -2.6390    -3.0320 hc         1 TEA       0.075811
@<TRIPOS>BOND
     1     1     2 1   
     2     1     4 1   
     3     1     6 1   
     4     1     8 1   
     5     2     3 1   
     6     2     9 1   
     7     2    10 1   
     8     3    11 1   
     9     3    12 1   
    10     3    13 1   
    11     4     5 1   
    12     4    14 1   
    13     4    15 1   
    14     5    16 1   
    15     5    17 1   
    16     5    18 1   
    17     6     7 1   
    18     6    19 1   
    19     6    20 1   
    20     7    21 1   
    21     7    22 1   
    22     7    23 1   
@<TRIPOS>SUBSTRUCTURE
     1 TEA         1 TEMP              0 ****  ****    0 ROOT
