@<TRIPOS>MOLECULE
TEA
   23    22     1     0     0
SMALL
No Charge or Current Charge


@<TRIPOS>ATOM
      1 N            0.3920    -0.0590    -2.0170 nx         1 TEA      -0.667000
      2 C11          0.8580    -0.3910    -0.5890 c3         1 TEA       0.098600
      3 C12          2.2290     0.2050    -0.2210 c3         1 TEA      -0.125100
      4 C21          0.1550     1.4360    -2.2490 c3         1 TEA       0.098600
      5 C22         -0.9430     2.0310    -1.3520 c3         1 TEA      -0.125100
      6 C31          1.2920    -0.6490    -3.1050 c3         1 TEA       0.098600
      7 C32          1.3530    -2.1850    -3.0840 c3         1 TEA      -0.125100
      8 HN          -0.5420    -0.5180    -2.1360 hn         1 TEA       0.494000
      9 H111         0.1100    -0.0210     0.1180 hx         1 TEA       0.095033
     10 H112         0.9040    -1.4780    -0.4810 hx         1 TEA       0.095033
     11 H121         2.4940    -0.0720     0.8060 hc         1 TEA       0.075811
     12 H122         3.0130    -0.1720    -0.8870 hc         1 TEA       0.075811
     13 H123         2.2110     1.2980    -0.2830 hc         1 TEA       0.075811
     14 H211         1.0940     1.9710    -2.0810 hx         1 TEA       0.095033
     15 H212        -0.1310     1.5810    -3.2950 hx         1 TEA       0.095033
     16 H221        -1.1100     3.0830    -1.6110 hc         1 TEA       0.075811
     17 H222        -1.8880     1.4910    -1.4870 hc         1 TEA       0.075811
     18 H223        -0.6590     1.9840    -0.2950 hc         1 TEA       0.075811
     19 H311         0.9100    -0.3280    -4.0790 hx         1 TEA       0.095033
     20 H312         2.2990    -0.2410    -2.9890 hx         1 TEA       0.095033
     21 H321         1.9580    -2.5490    -3.9240 hc         1 TEA       0.075811
     22 H322         1.8100    -2.5500    -2.1580 hc         1 TEA       0.075811
     23 H323         0.3490    -2.6160    -3.1740 hc         1 TEA       0.075811
@<TRIPOS>BOND
     1     1     2 1   
     2     1     4 1   
     3     1     6 1   
     4     1     8 1   
     5     2     3 1   
     6     2     9 1   
     7     2    10 1   
     8     3    11 1   
     9     3    12 1   
    10     3    13 1   
    11     4     5 1   
    12     4    14 1   
    13     4    15 1   
    14     5    16 1   
    15     5    17 1   
    16     5    18 1   
    17     6     7 1   
    18     6    19 1   
    19     6    20 1   
    20     7    21 1   
    21     7    22 1   
    22     7    23 1   
@<TRIPOS>SUBSTRUCTURE
     1 TEA         1 TEMP              0 ****  ****    0 ROOT
