@<TRIPOS>MOLECULE
TEB
   47    49     1     0     0
SMALL
No Charge or Current Charge


@<TRIPOS>ATOM
      1 C7           4.6460     1.0010    -1.0250 c          1 TEB       0.594900
      2 O14          5.0440     1.5750    -2.0350 o          1 TEB      -0.553100
      3 C6           3.5510     1.5690    -0.1100 c3         1 TEB      -0.209700
      4 C8           4.1620     1.9320     1.2710 c3         1 TEB       0.171300
      5 O15          3.1830     2.6240     2.0510 oh         1 TEB      -0.649000
      6 C9           5.4110     2.8370     1.1870 c3         1 TEB      -0.131100
      7 C5           2.3360     0.6000     0.0010 c5         1 TEB       0.193500
      8 C1           1.3730     0.4460    -1.2420 c5         1 TEB       0.000500
      9 C10          1.9850     0.6010    -2.6550 c3         1 TEB      -0.086100
     10 N4           2.7430    -0.8080     0.2320 nu         1 TEB      -0.771200
     11 C3           1.6650    -1.6040    -0.2390 ce         1 TEB       0.102800
     12 C11          1.5610    -3.0620     0.2780 c          1 TEB       0.713200
     13 O13          2.3990    -3.4420     1.0910 o          1 TEB      -0.697500
     14 O12          0.6670    -3.8000    -0.1180 o          1 TEB      -0.697500
     15 C2           0.8070    -0.9450    -1.0490 c2         1 TEB      -0.190600
     16 S16         -0.7130    -1.4960    -1.8280 ss         1 TEB      -0.273600
     17 C17         -1.6160    -1.4080    -0.1870 cy         1 TEB       0.019300
     18 C20         -3.1640    -1.6540    -0.1890 cy         1 TEB       0.223800
     19 N19         -3.2890    -0.1650    -0.2940 nn         1 TEB      -0.729600
     20 C18         -1.9790     0.0000     0.4020 cy         1 TEB       0.223800
     21 C21         -4.3150     0.3070     0.5120 c2         1 TEB       0.715100
     22 N25         -5.4260    -0.3190     0.6740 n2         1 TEB      -0.686900
     23 C24         -6.3150     0.5440     1.5150 c5         1 TEB       0.129800
     24 C23         -5.9750     2.0270     1.1960 c5         1 TEB       0.032600
     25 S22         -4.1490     2.0070     0.9940 ss         1 TEB      -0.424200
     26 H7           5.0910     0.0300    -0.7100 h4         1 TEB       0.021200
     27 H6           3.2050     2.5030    -0.5670 hc         1 TEB       0.061700
     28 H8           4.4550     1.0020     1.7810 h1         1 TEB       0.084700
     29 HO15         3.0630     3.5080     1.6430 ho         1 TEB       0.434000
     30 H9           5.2010     3.7500     0.6150 hc         1 TEB       0.040700
     31 H9A          5.7420     3.1300     2.1910 hc         1 TEB       0.040700
     32 H9B          6.2470     2.3160     0.7070 hc         1 TEB       0.040700
     33 H5           1.7190     0.9370     0.8460 h1         1 TEB       0.031700
     34 H1           0.5760     1.1950    -1.1820 hc         1 TEB       0.035700
     35 H10          1.2260     0.4290    -3.4270 hc         1 TEB       0.032367
     36 H10A         2.3790     1.6110    -2.8110 hc         1 TEB       0.032367
     37 H10B         2.7930    -0.1200    -2.8250 hc         1 TEB       0.032367
     38 HN4          3.1550    -1.1220     1.1150 hn         1 TEB       0.479000
     39 H17         -1.1180    -2.0390     0.5530 h1         1 TEB       0.126700
     40 H20         -3.5340    -2.2290    -1.0450 h1         1 TEB       0.059450
     41 H20A        -3.5150    -2.1060     0.7490 h1         1 TEB       0.059450
     42 H18         -2.0180     0.0030     1.5000 h1         1 TEB       0.059450
     43 H18A        -1.3500     0.8250     0.0480 h1         1 TEB       0.059450
     44 H24         -7.3710     0.3390     1.2940 h1         1 TEB       0.053200
     45 H24A        -6.1530     0.3190     2.5780 h1         1 TEB       0.053200
     46 H23         -6.4390     2.3380     0.2510 h1         1 TEB       0.069200
     47 H23A        -6.2880     2.7190     1.9890 h1         1 TEB       0.069200
@<TRIPOS>BOND
     1     1     2 2   
     2     1     3 1   
     3     1    26 1   
     4     3     4 1   
     5     3     7 1   
     6     3    27 1   
     7     4     5 1   
     8     4     6 1   
     9     4    28 1   
    10     5    29 1   
    11     6    30 1   
    12     6    31 1   
    13     6    32 1   
    14     7     8 1   
    15     7    10 1   
    16     7    33 1   
    17     8     9 1   
    18     8    15 1   
    19     8    34 1   
    20     9    35 1   
    21     9    36 1   
    22     9    37 1   
    23    10    11 1   
    24    10    38 1   
    25    11    12 1   
    26    11    15 2   
    27    12    13 1   
    28    12    14 1   
    29    15    16 1   
    30    16    17 1   
    31    17    18 1   
    32    17    20 1   
    33    17    39 1   
    34    18    19 1   
    35    18    40 1   
    36    18    41 1   
    37    19    20 1   
    38    19    21 1   
    39    20    42 1   
    40    20    43 1   
    41    21    22 2   
    42    21    25 1   
    43    22    23 1   
    44    23    24 1   
    45    23    44 1   
    46    23    45 1   
    47    24    25 1   
    48    24    46 1   
    49    24    47 1   
@<TRIPOS>SUBSTRUCTURE
     1 TEB         1 TEMP              0 ****  ****    0 ROOT
