@<TRIPOS>MOLECULE
TEB
   47    49     1     0     0
SMALL
abcg2


@<TRIPOS>ATOM
      1 C7           4.4730     1.1470    -1.3910 c          1 TEB       0.594900
      2 O14          4.9250     1.8590    -2.2560 o          1 TEB      -0.553100
      3 C6           3.6440     1.6240    -0.2300 c3         1 TEB      -0.209700
      4 C8           4.6100     1.7630     0.9860 c3         1 TEB       0.171300
      5 O15          3.9110     1.8720     2.2040 oh         1 TEB      -0.649000
      6 C9           5.5810     2.9210     0.8110 c3         1 TEB      -0.131100
      7 C5           2.4800     0.6810     0.0870 c5         1 TEB       0.193500
      8 C1           1.3600     0.5140    -0.9650 c5         1 TEB       0.000500
      9 C10          1.7540     0.5890    -2.4380 c3         1 TEB      -0.086100
     10 N4           2.9040    -0.6910     0.3420 nu         1 TEB      -0.771200
     11 C3           1.8120    -1.5120     0.1140 ce         1 TEB       0.102800
     12 C11          1.8420    -2.9210     0.6780 c          1 TEB       0.713200
     13 O13          2.9060    -3.2380     1.2460 o          1 TEB      -0.697500
     14 O12          0.8210    -3.6130     0.5390 o          1 TEB      -0.697500
     15 C2           0.8670    -0.8750    -0.6070 c2         1 TEB      -0.190600
     16 S16         -0.6110    -1.5110    -1.2920 ss         1 TEB      -0.273600
     17 C17         -1.6890    -1.5670     0.1550 cy         1 TEB       0.019300
     18 C20         -3.1710    -1.6970    -0.2500 cy         1 TEB       0.223800
     19 N19         -3.3550    -0.3100     0.1510 nn         1 TEB      -0.729600
     20 C18         -2.0380    -0.1960     0.7650 cy         1 TEB       0.223800
     21 C21         -4.5100     0.2760     0.5050 c2         1 TEB       0.715100
     22 N25         -5.6670    -0.1250     0.1650 n2         1 TEB      -0.686900
     23 C24         -6.7100     0.6770     0.7640 c5         1 TEB       0.129800
     24 C23         -6.1530     2.0560     1.1490 c5         1 TEB       0.032600
     25 S22         -4.4010     1.7430     1.5150 ss         1 TEB      -0.424200
     26 H7           4.6960     0.0660    -1.3760 h4         1 TEB       0.021200
     27 H6           3.2410     2.6160    -0.4660 hc         1 TEB       0.061700
     28 H8           5.1850     0.8350     1.0720 h1         1 TEB       0.084700
     29 HO15         3.4410     2.7130     2.2140 ho         1 TEB       0.434000
     30 H9           5.0450     3.8680     0.7130 hc         1 TEB       0.040700
     31 H9A          6.2380     2.9900     1.6790 hc         1 TEB       0.040700
     32 H9B          6.2120     2.8070    -0.0680 hc         1 TEB       0.040700
     33 H5           1.9830     1.0740     0.9830 h1         1 TEB       0.031700
     34 H1           0.5930     1.2740    -0.7910 hc         1 TEB       0.035700
     35 H10          0.8840     0.3590    -3.0560 hc         1 TEB       0.032367
     36 H10A         2.0920     1.5860    -2.7240 hc         1 TEB       0.032367
     37 H10B         2.5300    -0.1340    -2.6950 hc         1 TEB       0.032367
     38 HN4          3.3880    -0.8620     1.2120 hn         1 TEB       0.479000
     39 H17         -1.3160    -2.3110     0.8530 h1         1 TEB       0.126700
     40 H20         -3.3820    -1.8990    -1.3020 h1         1 TEB       0.059450
     41 H20A        -3.7350    -2.4040     0.3650 h1         1 TEB       0.059450
     42 H18         -2.0610    -0.2040     1.8590 h1         1 TEB       0.059450
     43 H18A        -1.4440     0.6540     0.4250 h1         1 TEB       0.059450
     44 H24         -7.5500     0.7960     0.0780 h1         1 TEB       0.053200
     45 H24A        -7.0960     0.1700     1.6550 h1         1 TEB       0.053200
     46 H23         -6.2210     2.7670     0.3260 h1         1 TEB       0.069200
     47 H23A        -6.6470     2.4770     2.0220 h1         1 TEB       0.069200
@<TRIPOS>BOND
     1     1     2 2   
     2     1     3 1   
     3     1    26 1   
     4     3     4 1   
     5     3     7 1   
     6     3    27 1   
     7     4     5 1   
     8     4     6 1   
     9     4    28 1   
    10     5    29 1   
    11     6    30 1   
    12     6    31 1   
    13     6    32 1   
    14     7     8 1   
    15     7    10 1   
    16     7    33 1   
    17     8     9 1   
    18     8    15 1   
    19     8    34 1   
    20     9    35 1   
    21     9    36 1   
    22     9    37 1   
    23    10    11 1   
    24    10    38 1   
    25    11    12 1   
    26    11    15 2   
    27    12    13 1   
    28    12    14 1   
    29    15    16 1   
    30    16    17 1   
    31    17    18 1   
    32    17    20 1   
    33    17    39 1   
    34    18    19 1   
    35    18    40 1   
    36    18    41 1   
    37    19    20 1   
    38    19    21 1   
    39    20    42 1   
    40    20    43 1   
    41    21    22 2   
    42    21    25 1   
    43    22    23 1   
    44    23    24 1   
    45    23    44 1   
    46    23    45 1   
    47    24    25 1   
    48    24    46 1   
    49    24    47 1   
@<TRIPOS>SUBSTRUCTURE
     1 TEB         1 TEMP              0 ****  ****    0 ROOT
