@<TRIPOS>MOLECULE
TEC
   54    54     1     0     0
SMALL
No Charge or Current Charge


@<TRIPOS>ATOM
      1 CAV        -18.0960   -51.2860     3.1110 c3         1 TEC      -0.089100
      2 CAU        -19.4210   -50.6890     3.6310 c3         1 TEC      -0.075400
      3 CAT        -20.0300   -49.5920     2.7270 c3         1 TEC      -0.075400
      4 CAS        -19.1840   -48.2970     2.6360 c3         1 TEC      -0.073400
      5 CAR        -19.7860   -47.2010     1.7230 c3         1 TEC      -0.073400
      6 CAQ        -21.1130   -46.5930     2.2360 c3         1 TEC      -0.075400
      7 CAP        -21.6290   -45.4400     1.3470 c3         1 TEC      -0.076400
      8 CAO        -22.9550   -44.8330     1.8550 c3         1 TEC      -0.068400
      9 CAN        -23.4720   -43.6780     0.9640 c3         1 TEC      -0.135400
     10 CAM        -24.7870   -43.1110     1.4970 c          1 TEC       0.602100
     11 OAW        -24.8570   -42.2590     2.3750 o          1 TEC      -0.512000
     12 O6         -25.8780   -43.6760     0.8880 os         1 TEC      -0.448100
     13 C6         -27.1970   -43.2510     1.3040 c3         1 TEC       0.163600
     14 C5         -27.4640   -41.7690     0.8680 c6         1 TEC       0.125300
     15 O5         -28.4340   -41.8010    -0.2120 os         1 TEC      -0.454000
     16 C1         -28.7160   -40.5090    -0.7680 c6         1 TEC       0.407300
     17 O1         -29.6400   -40.6730    -1.8280 oh         1 TEC      -0.643000
     18 C2         -29.3600   -39.5910     0.3180 c6         1 TEC       0.088500
     19 N2         -29.8140   -38.2650    -0.2350 n8         1 TEC      -1.012200
     20 C3         -28.3590   -39.4570     1.5050 c6         1 TEC       0.144300
     21 O3         -28.9060   -38.6620     2.5690 oh         1 TEC      -0.666000
     22 C4         -27.9840   -40.8730     2.0440 c6         1 TEC       0.110300
     23 O4         -27.0220   -40.7450     3.1190 oh         1 TEC      -0.744000
     24 H1         -17.7760   -52.1150     3.7530 hc         1 TEC       0.031367
     25 H2         -18.2160   -51.6700     2.0910 hc         1 TEC       0.031367
     26 H3         -17.2970   -50.5350     3.1090 hc         1 TEC       0.031367
     27 H4         -19.2650   -50.2870     4.6400 hc         1 TEC       0.037200
     28 H5         -20.1500   -51.5030     3.7300 hc         1 TEC       0.037200
     29 H6         -21.0230   -49.3470     3.1210 hc         1 TEC       0.037200
     30 H7         -20.1840   -49.9980     1.7200 hc         1 TEC       0.037200
     31 H8         -18.1890   -48.5440     2.2490 hc         1 TEC       0.038700
     32 H9         -19.0360   -47.8860     3.6420 hc         1 TEC       0.038700
     33 H10        -19.9390   -47.6130     0.7180 hc         1 TEC       0.036700
     34 H11        -19.0470   -46.3960     1.6210 hc         1 TEC       0.036700
     35 H12        -20.9680   -46.2220     3.2590 hc         1 TEC       0.040700
     36 H13        -21.8820   -47.3720     2.2820 hc         1 TEC       0.040700
     37 H14        -21.7710   -45.8110     0.3240 hc         1 TEC       0.038200
     38 H15        -20.8670   -44.6520     1.3000 hc         1 TEC       0.038200
     39 H16        -22.8140   -44.4630     2.8790 hc         1 TEC       0.054700
     40 H17        -23.7190   -45.6210     1.9030 hc         1 TEC       0.054700
     41 H18        -23.6390   -44.0830    -0.0410 hc         1 TEC       0.076200
     42 H19        -22.7220   -42.8800     0.9410 hc         1 TEC       0.076200
     43 H20        -27.9600   -43.8940     0.8470 h1         1 TEC       0.081700
     44 H21        -27.3100   -43.3510     2.3920 h1         1 TEC       0.081700
     45 H22        -26.5340   -41.3350     0.4720 h1         1 TEC       0.063700
     46 H23        -27.7880   -40.0540    -1.1480 h2         1 TEC       0.028700
     47 H24        -30.1040   -39.8040    -1.8290 ho         1 TEC       0.482000
     48 H25        -30.2570   -40.1110     0.6940 h1         1 TEC       0.092700
     49 H26        -30.2260   -37.7350     0.5460 hn         1 TEC       0.414000
     50 H27        -28.9890   -37.6960    -0.4640 hn         1 TEC       0.414000
     51 H29        -27.4400   -38.9810     1.1280 h1         1 TEC       0.042700
     52 H30        -28.3820   -38.9260     3.3620 ho         1 TEC       0.466000
     53 H31        -28.9030   -41.3400     2.4320 h1         1 TEC       0.061700
     54 H32        -26.1980   -41.2480     2.8660 ho         1 TEC       0.537000
@<TRIPOS>BOND
     1     1     2 1   
     2     1    24 1   
     3     1    25 1   
     4     1    26 1   
     5     2     3 1   
     6     2    27 1   
     7     2    28 1   
     8     3     4 1   
     9     3    29 1   
    10     3    30 1   
    11     4     5 1   
    12     4    31 1   
    13     4    32 1   
    14     5     6 1   
    15     5    33 1   
    16     5    34 1   
    17     6     7 1   
    18     6    35 1   
    19     6    36 1   
    20     7     8 1   
    21     7    37 1   
    22     7    38 1   
    23     8     9 1   
    24     8    39 1   
    25     8    40 1   
    26     9    10 1   
    27     9    41 1   
    28     9    42 1   
    29    10    11 2   
    30    10    12 1   
    31    12    13 1   
    32    13    14 1   
    33    13    43 1   
    34    13    44 1   
    35    14    15 1   
    36    14    22 1   
    37    14    45 1   
    38    15    16 1   
    39    16    17 1   
    40    16    18 1   
    41    16    46 1   
    42    17    47 1   
    43    18    19 1   
    44    18    20 1   
    45    18    48 1   
    46    19    49 1   
    47    19    50 1   
    48    20    21 1   
    49    20    22 1   
    50    20    51 1   
    51    21    52 1   
    52    22    23 1   
    53    22    53 1   
    54    23    54 1   
@<TRIPOS>SUBSTRUCTURE
     1 TEC         1 TEMP              0 ****  ****    0 ROOT
