@<TRIPOS>MOLECULE
TEC
   54    54     1     0     0
SMALL
abcg2


@<TRIPOS>ATOM
      1 CAV        -17.6740   -50.3340     4.0110 c3         1 TEC      -0.089100
      2 CAU        -18.9970   -49.7300     4.4860 c3         1 TEC      -0.075400
      3 CAT        -19.8680   -49.1620     3.3620 c3         1 TEC      -0.075400
      4 CAS        -19.2660   -47.9470     2.6560 c3         1 TEC      -0.073400
      5 CAR        -20.1300   -47.3820     1.5250 c3         1 TEC      -0.073400
      6 CAQ        -21.4630   -46.7880     1.9800 c3         1 TEC      -0.075400
      7 CAP        -22.2440   -46.1310     0.8440 c3         1 TEC      -0.076400
      8 CAO        -23.5780   -45.5480     1.3010 c3         1 TEC      -0.068400
      9 CAN        -24.3430   -44.8870     0.1620 c3         1 TEC      -0.135400
     10 CAM        -25.6580   -44.2890     0.5800 c          1 TEC       0.602100
     11 OAW        -26.1650   -44.4090     1.6780 o          1 TEC      -0.512000
     12 O6         -26.2160   -43.5880    -0.4150 os         1 TEC      -0.448100
     13 C6         -27.5390   -43.0370    -0.2370 c3         1 TEC       0.163600
     14 C5         -27.5050   -41.5500     0.1090 c6         1 TEC       0.125300
     15 O5         -28.7420   -41.0340    -0.3900 os         1 TEC      -0.454000
     16 C1         -28.8310   -39.6290    -0.2650 c6         1 TEC       0.407300
     17 O1         -30.0290   -39.2580    -0.8870 oh         1 TEC      -0.643000
     18 C2         -28.8230   -39.2150     1.2060 c6         1 TEC       0.088500
     19 N2         -29.0320   -37.7720     1.2830 n8         1 TEC      -1.012200
     20 C3         -27.5520   -39.7420     1.8580 c6         1 TEC       0.144300
     21 O3         -27.6090   -39.4630     3.2530 oh         1 TEC      -0.666000
     22 C4         -27.4020   -41.2380     1.6090 c6         1 TEC       0.110300
     23 O4         -26.1470   -41.6200     2.1620 oh         1 TEC      -0.744000
     24 H1         -17.1200   -50.7700     4.8460 hc         1 TEC       0.031367
     25 H2         -17.8500   -51.1250     3.2770 hc         1 TEC       0.031367
     26 H3         -17.0320   -49.5850     3.5450 hc         1 TEC       0.031367
     27 H4         -18.7950   -48.9390     5.2170 hc         1 TEC       0.037200
     28 H5         -19.5660   -50.4990     5.0170 hc         1 TEC       0.037200
     29 H6         -20.8420   -48.8930     3.7810 hc         1 TEC       0.037200
     30 H7         -20.0590   -49.9490     2.6210 hc         1 TEC       0.037200
     31 H8         -18.2890   -48.2140     2.2450 hc         1 TEC       0.038700
     32 H9         -19.0830   -47.1590     3.3970 hc         1 TEC       0.038700
     33 H10        -20.3200   -48.1710     0.7880 hc         1 TEC       0.036700
     34 H11        -19.5620   -46.6050     1.0020 hc         1 TEC       0.036700
     35 H12        -21.2760   -46.0460     2.7640 hc         1 TEC       0.040700
     36 H13        -22.0840   -47.5650     2.4340 hc         1 TEC       0.040700
     37 H14        -22.4210   -46.8670     0.0510 hc         1 TEC       0.038200
     38 H15        -21.6340   -45.3380     0.3960 hc         1 TEC       0.038200
     39 H16        -23.4050   -44.8140     2.0930 hc         1 TEC       0.054700
     40 H17        -24.1920   -46.3390     1.7400 hc         1 TEC       0.054700
     41 H18        -24.5560   -45.6070    -0.6360 hc         1 TEC       0.076200
     42 H19        -23.7530   -44.0930    -0.3040 hc         1 TEC       0.076200
     43 H20        -28.0200   -43.1480    -1.2070 h1         1 TEC       0.081700
     44 H21        -28.0820   -43.6120     0.5100 h1         1 TEC       0.081700
     45 H22        -26.6630   -41.0830    -0.4180 h1         1 TEC       0.063700
     46 H23        -27.9720   -39.1770    -0.7880 h2         1 TEC       0.028700
     47 H24        -30.3150   -38.4470    -0.4350 ho         1 TEC       0.482000
     48 H25        -29.6820   -39.7010     1.6780 h1         1 TEC       0.092700
     49 H26        -29.2230   -37.4940     2.2380 hn         1 TEC       0.414000
     50 H27        -28.1950   -37.2740     0.9910 hn         1 TEC       0.414000
     51 H29        -26.6850   -39.2330     1.4150 h1         1 TEC       0.042700
     52 H30        -26.8370   -39.8830     3.6580 ho         1 TEC       0.466000
     53 H31        -28.2170   -41.7600     2.1250 h1         1 TEC       0.061700
     54 H32        -26.1560   -42.5810     2.3020 ho         1 TEC       0.537000
@<TRIPOS>BOND
     1     1     2 1   
     2     1    24 1   
     3     1    25 1   
     4     1    26 1   
     5     2     3 1   
     6     2    27 1   
     7     2    28 1   
     8     3     4 1   
     9     3    29 1   
    10     3    30 1   
    11     4     5 1   
    12     4    31 1   
    13     4    32 1   
    14     5     6 1   
    15     5    33 1   
    16     5    34 1   
    17     6     7 1   
    18     6    35 1   
    19     6    36 1   
    20     7     8 1   
    21     7    37 1   
    22     7    38 1   
    23     8     9 1   
    24     8    39 1   
    25     8    40 1   
    26     9    10 1   
    27     9    41 1   
    28     9    42 1   
    29    10    11 2   
    30    10    12 1   
    31    12    13 1   
    32    13    14 1   
    33    13    43 1   
    34    13    44 1   
    35    14    15 1   
    36    14    22 1   
    37    14    45 1   
    38    15    16 1   
    39    16    17 1   
    40    16    18 1   
    41    16    46 1   
    42    17    47 1   
    43    18    19 1   
    44    18    20 1   
    45    18    48 1   
    46    19    49 1   
    47    19    50 1   
    48    20    21 1   
    49    20    22 1   
    50    20    51 1   
    51    21    52 1   
    52    22    23 1   
    53    22    53 1   
    54    23    54 1   
@<TRIPOS>SUBSTRUCTURE
     1 TEC         1 TEMP              0 ****  ****    0 ROOT
