@<TRIPOS>MOLECULE
TEE
    9     8     1     0     0
SMALL
No Charge or Current Charge


@<TRIPOS>ATOM
      1 N            2.0430    -1.7330     0.2880 nv         1 TEE      -0.950000
      2 CB           1.0940     0.4130     0.1340 c2         1 TEE      -0.237400
      3 CA           2.1720    -0.3450     0.3580 c2         1 TEE       0.068000
      4 SG           1.1450     2.2000     0.1970 sh         1 TEE      -0.368400
      5 HN1          1.1050    -2.1300     0.3480 hn         1 TEE       0.459000
      6 HN2          2.7900    -2.3090     0.6810 hn         1 TEE       0.459000
      7 HB2          0.1180    -0.0140    -0.1040 h4         1 TEE       0.187000
      8 HA           3.1570     0.0780     0.5930 h4         1 TEE       0.191000
      9 HS          -0.1610     2.4230    -0.0980 hs         1 TEE       0.191800
@<TRIPOS>BOND
     1     1     3 1   
     2     1     5 1   
     3     1     6 1   
     4     2     3 2   
     5     2     4 1   
     6     2     7 1   
     7     3     8 1   
     8     4     9 1   
@<TRIPOS>SUBSTRUCTURE
     1 TEE         1 TEMP              0 ****  ****    0 ROOT
