@<TRIPOS>MOLECULE
TEE
    9     8     1     0     0
SMALL
abcg2


@<TRIPOS>ATOM
      1 N            2.1200    -1.7100     0.3570 nv         1 TEE      -0.950000
      2 CB           1.0140     0.3720    -0.1690 c2         1 TEE      -0.237400
      3 CA           2.0010    -0.3540     0.3840 c2         1 TEE       0.068000
      4 SG           1.1270     2.1280    -0.2490 sh         1 TEE      -0.368400
      5 HN1          1.3040    -2.2480     0.1130 hn         1 TEE       0.459000
      6 HN2          2.6740    -2.1280     1.0850 hn         1 TEE       0.459000
      7 HB2          0.1750    -0.1050    -0.6640 h4         1 TEE       0.187000
      8 HA           2.8300     0.1550     0.8640 h4         1 TEE       0.191000
      9 HS           0.2180     2.4720     0.6770 hs         1 TEE       0.191800
@<TRIPOS>BOND
     1     1     3 1   
     2     1     5 1   
     3     1     6 1   
     4     2     3 2   
     5     2     4 1   
     6     2     7 1   
     7     3     8 1   
     8     4     9 1   
@<TRIPOS>SUBSTRUCTURE
     1 TEE         1 TEMP              0 ****  ****    0 ROOT
