@<TRIPOS>MOLECULE
TEF
   27    28     1     0     0
SMALL
No Charge or Current Charge


@<TRIPOS>ATOM
      1 CA         -23.5090   -38.5210   -14.7290 c3         1 TEF       0.013500
      2 N          -23.3780   -37.9130   -16.1090 n8         1 TEF      -0.886800
      3 OXT        -24.7910   -37.6930   -12.8400 o          1 TEF      -0.833800
      4 CB         -22.2810   -39.4130   -14.4010 c3         1 TEF      -0.029100
      5 N2         -21.5520   -43.8560   -17.9960 na         1 TEF       0.375800
      6 O          -23.0620   -36.5410   -13.3910 o          1 TEF      -0.833800
      7 CG         -22.0910   -40.5830   -15.3640 ca         1 TEF      -0.001300
      8 N3         -21.5930   -45.1360   -17.5640 nc         1 TEF      -0.526800
      9 CD1        -21.0130   -40.5990   -16.2700 ca         1 TEF      -0.125000
     10 N4         -21.2230   -44.8970   -19.7780 nd         1 TEF      -0.402000
     11 CE1        -20.8330   -41.6850   -17.1450 ca         1 TEF      -0.110500
     12 N5         -21.3320   -43.6810   -19.3220 nc         1 TEF      -0.184800
     13 CZ         -21.7290   -42.7750   -17.1250 ca         1 TEF      -0.048200
     14 C7         -21.3820   -45.7660   -18.7080 cd         1 TEF       0.465900
     15 CE2        -22.8060   -42.7600   -16.2140 ca         1 TEF      -0.110500
     16 CD2        -22.9830   -41.6720   -15.3400 ca         1 TEF      -0.125000
     17 C          -23.7900   -37.5200   -13.5270 c          1 TEF       0.904600
     18 HA         -24.3830   -39.1860   -14.7700 h1         1 TEF       0.042700
     19 H          -24.2310   -37.3890   -16.3300 hn         1 TEF       0.328800
     20 H2         -22.6460   -37.1950   -16.0830 hn         1 TEF       0.328800
     21 HB2        -21.3800   -38.7870   -14.3730 hc         1 TEF       0.057200
     22 HB3        -22.3990   -39.8070   -13.3840 hc         1 TEF       0.057200
     23 HD1        -20.3130   -39.7660   -16.2980 ha         1 TEF       0.141500
     24 HE1        -19.9930   -41.6800   -17.8380 ha         1 TEF       0.146500
     25 H7         -21.3350   -46.8420   -18.8210 h5         1 TEF       0.066100
     26 HE2        -23.5070   -43.5920   -16.1830 ha         1 TEF       0.146500
     27 HD2        -23.8170   -41.6760   -14.6400 ha         1 TEF       0.141500
@<TRIPOS>BOND
     1     1     2 1   
     2     1     4 1   
     3     1    17 1   
     4     1    18 1   
     5     2    19 1   
     6     2    20 1   
     7     3    17 1   
     8     4     7 1   
     9     4    21 1   
    10     4    22 1   
    11     5     8 1   
    12     5    12 1   
    13     5    13 1   
    14     6    17 1   
    15     7     9 ar  
    16     7    16 ar  
    17     8    14 2   
    18     9    11 ar  
    19     9    23 1   
    20    10    12 2   
    21    10    14 1   
    22    11    13 ar  
    23    11    24 1   
    24    13    15 ar  
    25    14    25 1   
    26    15    16 ar  
    27    15    26 1   
    28    16    27 1   
@<TRIPOS>SUBSTRUCTURE
     1 TEF         1 TEMP              0 ****  ****    0 ROOT
