@<TRIPOS>MOLECULE
TEF
   27    28     1     0     0
SMALL
bcc


@<TRIPOS>ATOM
      1 CA         -23.5140   -38.5620   -14.7800 c3         1 TEF       0.013500
      2 N          -23.2920   -38.0540   -16.1240 n8         1 TEF      -0.886800
      3 OXT        -23.9160   -37.9140   -12.5220 o          1 TEF      -0.833800
      4 CB         -22.3380   -39.4500   -14.3560 c3         1 TEF      -0.029100
      5 N2         -21.5040   -43.8120   -17.9400 na         1 TEF       0.375800
      6 O          -23.9220   -36.3080   -14.0720 o          1 TEF      -0.833800
      7 CG         -22.1010   -40.5970   -15.2920 ca         1 TEF      -0.001300
      8 N3         -22.2130   -44.9150   -17.9090 nc         1 TEF      -0.526800
      9 CD1        -21.1010   -40.5540   -16.2600 ca         1 TEF      -0.125000
     10 N4         -20.6930   -44.9360   -19.4960 nd         1 TEF      -0.402000
     11 CE1        -20.8910   -41.6070   -17.1350 ca         1 TEF      -0.110500
     12 N5         -20.5950   -43.8060   -18.8780 nc         1 TEF      -0.184800
     13 CZ         -21.7040   -42.7280   -17.0500 ca         1 TEF      -0.048200
     14 C7         -21.6860   -45.6050   -18.8950 cd         1 TEF       0.465900
     15 CE2        -22.7110   -42.8020   -16.0970 ca         1 TEF      -0.110500
     16 CD2        -22.8970   -41.7380   -15.2300 ca         1 TEF      -0.125000
     17 C          -23.8030   -37.4890   -13.6910 c          1 TEF       0.904600
     18 HA         -24.4040   -39.2050   -14.8200 h1         1 TEF       0.042700
     19 H          -24.0360   -37.4030   -16.3410 hn         1 TEF       0.328800
     20 H2         -22.4550   -37.4800   -16.1160 hn         1 TEF       0.328800
     21 HB2        -21.4310   -38.8390   -14.2900 hc         1 TEF       0.057200
     22 HB3        -22.5390   -39.8280   -13.3540 hc         1 TEF       0.057200
     23 HD1        -20.4630   -39.6820   -16.3300 ha         1 TEF       0.141500
     24 HE1        -20.1030   -41.5450   -17.8720 ha         1 TEF       0.146500
     25 H7         -22.0180   -46.5900   -19.1800 h5         1 TEF       0.066100
     26 HE2        -23.3410   -43.6770   -16.0270 ha         1 TEF       0.146500
     27 HD2        -23.6820   -41.8050   -14.4860 ha         1 TEF       0.141500
@<TRIPOS>BOND
     1     1     2 1   
     2     1     4 1   
     3     1    17 1   
     4     1    18 1   
     5     2    19 1   
     6     2    20 1   
     7     3    17 1   
     8     4     7 1   
     9     4    21 1   
    10     4    22 1   
    11     5     8 1   
    12     5    12 1   
    13     5    13 1   
    14     6    17 1   
    15     7     9 ar  
    16     7    16 ar  
    17     8    14 2   
    18     9    11 ar  
    19     9    23 1   
    20    10    12 2   
    21    10    14 1   
    22    11    13 ar  
    23    11    24 1   
    24    13    15 ar  
    25    14    25 1   
    26    15    16 ar  
    27    15    26 1   
    28    16    27 1   
@<TRIPOS>SUBSTRUCTURE
     1 TEF         1 TEMP              0 ****  ****    0 ROOT
