@<TRIPOS>MOLECULE
TEG
   22    21     1     0     0
SMALL
abcg2


@<TRIPOS>ATOM
      1 CAB          3.2190    -0.5400    -0.0370 c          1 TEG       0.726000
      2 CAC          2.3010     0.5670     0.5020 c3         1 TEG       0.009600
      3 CAF          0.1890     1.5500     0.3780 c3         1 TEG       0.160600
      4 CAG         -1.1380     1.4940    -0.3370 c3         1 TEG       0.163600
      5 CAI         -3.0400     0.1790    -0.6790 c3         1 TEG       0.164600
      6 CAJ         -3.6990    -1.1230    -0.3030 c3         1 TEG       0.162600
      7 OAA          2.7690    -1.3060    -0.9040 o          1 TEG      -0.724500
      8 OAD          4.3580    -0.5520     0.4720 o          1 TEG      -0.724500
      9 OAE          1.0360     0.5420    -0.1050 os         1 TEG      -0.410000
     10 OAH         -1.8050     0.2990    -0.0210 os         1 TEG      -0.418000
     11 OAK         -4.0340    -1.1050     1.0650 oh         1 TEG      -0.709000
     12 H1           2.2140     0.4510     1.5940 h1         1 TEG      -0.003300
     13 H2           2.7930     1.5400     0.3420 h1         1 TEG      -0.003300
     14 H3           0.6170     2.5490     0.2090 h1         1 TEG       0.007700
     15 H4           0.0320     1.4550     1.4630 h1         1 TEG       0.007700
     16 H5          -1.7280     2.3690    -0.0290 h1         1 TEG       0.011200
     17 H6          -0.9810     1.5840    -1.4210 h1         1 TEG       0.011200
     18 H7          -2.9080     0.1930    -1.7710 h1         1 TEG       0.015700
     19 H8          -3.7030     1.0210    -0.4300 h1         1 TEG       0.015700
     20 H9          -4.5860    -1.2370    -0.9410 h1         1 TEG       0.022200
     21 H10         -3.0240    -1.9540    -0.5470 h1         1 TEG       0.022200
     22 H12         -4.4310    -1.9510     1.2870 ho         1 TEG       0.491000
@<TRIPOS>BOND
     1     1     2 1   
     2     1     7 1   
     3     1     8 1   
     4     2     9 1   
     5     2    12 1   
     6     2    13 1   
     7     3     4 1   
     8     3     9 1   
     9     3    14 1   
    10     3    15 1   
    11     4    10 1   
    12     4    16 1   
    13     4    17 1   
    14     5     6 1   
    15     5    10 1   
    16     5    18 1   
    17     5    19 1   
    18     6    11 1   
    19     6    20 1   
    20     6    21 1   
    21    11    22 1   
@<TRIPOS>SUBSTRUCTURE
     1 TEG         1 TEMP              0 ****  ****    0 ROOT
