@<TRIPOS>MOLECULE
TEG
   22    21     1     0     0
SMALL
No Charge or Current Charge


@<TRIPOS>ATOM
      1 CAB          3.3710    -0.5060    -0.0720 c          1 TEG       0.726000
      2 CAC          2.3850     0.5530     0.5300 c3         1 TEG       0.009600
      3 CAF          0.1880     1.5870     0.4080 c3         1 TEG       0.160600
      4 CAG         -1.1420     1.5430    -0.3850 c3         1 TEG       0.163600
      5 CAI         -3.1150     0.1810    -0.7290 c3         1 TEG       0.164600
      6 CAJ         -3.7870    -1.1420    -0.2680 c3         1 TEG       0.162600
      7 OAA          3.0210    -1.1880    -1.0280 o          1 TEG      -0.724500
      8 OAD          4.4750    -0.6110     0.4480 o          1 TEG      -0.724500
      9 OAE          1.0970     0.6070    -0.1330 os         1 TEG      -0.410000
     10 OAH         -1.8580     0.3400    -0.0430 os         1 TEG      -0.418000
     11 OAK         -4.2070    -1.0770     1.1090 oh         1 TEG      -0.709000
     12 H1           2.2460     0.3140     1.5930 h1         1 TEG      -0.003300
     13 H2           2.8750     1.5350     0.4720 h1         1 TEG      -0.003300
     14 H3           0.6200     2.5920     0.3170 h1         1 TEG       0.007700
     15 H4          -0.0090     1.3960     1.4710 h1         1 TEG       0.007700
     16 H5          -1.7400     2.4250    -0.1220 h1         1 TEG       0.011200
     17 H6          -0.9320     1.5820    -1.4620 h1         1 TEG       0.011200
     18 H7          -2.9520     0.1360    -1.8140 h1         1 TEG       0.015700
     19 H8          -3.7850     1.0250    -0.5200 h1         1 TEG       0.015700
     20 H9          -4.6550    -1.3320    -0.9130 h1         1 TEG       0.022200
     21 H10         -3.0810    -1.9700    -0.4160 h1         1 TEG       0.022200
     22 H12         -4.5620    -1.9660     1.3420 ho         1 TEG       0.491000
@<TRIPOS>BOND
     1     1     2 1   
     2     1     7 1   
     3     1     8 1   
     4     2     9 1   
     5     2    12 1   
     6     2    13 1   
     7     3     4 1   
     8     3     9 1   
     9     3    14 1   
    10     3    15 1   
    11     4    10 1   
    12     4    16 1   
    13     4    17 1   
    14     5     6 1   
    15     5    10 1   
    16     5    18 1   
    17     5    19 1   
    18     6    11 1   
    19     6    20 1   
    20     6    21 1   
    21    11    22 1   
@<TRIPOS>SUBSTRUCTURE
     1 TEG         1 TEMP              0 ****  ****    0 ROOT
