@<TRIPOS>MOLECULE
TEH
   31    32     1     0     0
SMALL
No Charge or Current Charge


@<TRIPOS>ATOM
      1 C13         10.4410    -2.4670     6.8710 c6         1 TEH       0.090000
      2 C15         10.8560    -4.9110     6.4630 c          1 TEH       0.558000
      3 C17          9.4600    -5.0080     5.7970 c6         1 TEH       0.014000
      4 C01          2.1590    -3.1530     6.0690 ca         1 TEH      -0.144000
      5 C02          2.0420    -3.5980     4.7420 ca         1 TEH      -0.075500
      6 C03          3.1410    -4.2030     4.1070 ca         1 TEH      -0.161500
      7 C04          4.3590    -4.3640     4.7890 ca         1 TEH       0.144100
      8 C05          4.4710    -3.9180     6.1260 ca         1 TEH      -0.161500
      9 C06          3.3720    -3.3130     6.7600 ca         1 TEH      -0.075500
     10 C08          6.7310    -5.1050     4.6670 c3         1 TEH       0.085600
     11 C12          9.4830    -2.4740     5.6570 c6         1 TEH       0.087000
     12 N11          8.7040    -3.7380     5.5080 n          1 TEH      -0.418800
     13 N14         11.2370    -3.6930     6.9660 ns         1 TEH      -0.504900
     14 O07          5.3990    -4.9710     4.1100 os         1 TEH      -0.318100
     15 O10          7.0590    -2.7200     4.2770 o          1 TEH      -0.566100
     16 O16         11.6030    -5.8740     6.5480 o          1 TEH      -0.549000
     17 H1          11.1150    -1.6000     6.8100 h1         1 TEH       0.055700
     18 H2           9.8520    -2.3700     7.7940 h1         1 TEH       0.055700
     19 H3           9.6070    -5.5610     4.8590 h1         1 TEH       0.069200
     20 H4           8.8580    -5.6350     6.4680 h1         1 TEH       0.069200
     21 H6           1.1030    -3.4760     4.2060 ha         1 TEH       0.111000
     22 H7           3.0490    -4.5480     3.0800 ha         1 TEH       0.118000
     23 H8           5.3940    -4.0320     6.6860 ha         1 TEH       0.118000
     24 H9           3.4590    -2.9690     7.7890 ha         1 TEH       0.111000
     25 H10          6.6940    -5.5670     5.6610 h1         1 TEH       0.071200
     26 H11          7.3340    -5.7600     4.0280 h1         1 TEH       0.071200
     27 H12         10.0720    -2.3210     4.7410 h1         1 TEH       0.067700
     28 H13          8.8000    -1.6180     5.7490 h1         1 TEH       0.067700
     29 H14         12.1500    -3.6540     7.4040 hn         1 TEH       0.328500
     30 C09          7.4950    -3.7550     4.7700 c          1 TEH       0.567100
     31 H5           1.3100    -2.6850     6.5620 ha         1 TEH       0.114000
@<TRIPOS>BOND
     1     1    11 1   
     2     1    13 1   
     3     1    17 1   
     4     1    18 1   
     5     2     3 1   
     6     2    13 1   
     7     2    16 2   
     8     3    12 1   
     9     3    19 1   
    10     3    20 1   
    11     4     5 ar  
    12     4     9 ar  
    13     4    31 1   
    14     5     6 ar  
    15     5    21 1   
    16     6     7 ar  
    17     6    22 1   
    18     7     8 ar  
    19     7    14 1   
    20     8     9 ar  
    21     8    23 1   
    22     9    24 1   
    23    10    14 1   
    24    10    25 1   
    25    10    26 1   
    26    10    30 1   
    27    11    12 1   
    28    11    27 1   
    29    11    28 1   
    30    12    30 1   
    31    13    29 1   
    32    15    30 2   
@<TRIPOS>SUBSTRUCTURE
     1 TEH         1 TEMP              0 ****  ****    0 ROOT
