@<TRIPOS>MOLECULE
TEH
   31    32     1     0     0
SMALL
abcg2


@<TRIPOS>ATOM
      1 C13         10.3700    -2.5600     6.8200 c6         1 TEH       0.090000
      2 C15         10.7440    -4.8910     6.2620 c          1 TEH       0.558000
      3 C17          9.2300    -4.9280     6.1210 c6         1 TEH       0.014000
      4 C01          2.2900    -3.2050     6.0130 ca         1 TEH      -0.144000
      5 C02          2.2400    -3.5800     4.6750 ca         1 TEH      -0.075500
      6 C03          3.3440    -4.1450     4.0600 ca         1 TEH      -0.161500
      7 C04          4.5220    -4.3410     4.7790 ca         1 TEH       0.144100
      8 C05          4.5800    -3.9710     6.1200 ca         1 TEH      -0.161500
      9 C06          3.4620    -3.4070     6.7240 ca         1 TEH      -0.075500
     10 C08          6.7810    -5.0710     4.7160 c3         1 TEH       0.085600
     11 C12          9.3500    -2.4510     5.7080 c6         1 TEH       0.087000
     12 N11          8.6600    -3.7220     5.5380 n          1 TEH      -0.418800
     13 N14         11.2400    -3.6890     6.5770 ns         1 TEH      -0.504900
     14 O07          5.5390    -4.9160     4.0950 os         1 TEH      -0.318100
     15 O10          7.0580    -2.7320     4.3040 o          1 TEH      -0.566100
     16 O16         11.4110    -5.9030     6.1320 o          1 TEH      -0.549000
     17 H1          10.9710    -1.6540     6.8420 h1         1 TEH       0.055700
     18 H2           9.8730    -2.6450     7.7920 h1         1 TEH       0.055700
     19 H3           9.0030    -5.7970     5.5070 h1         1 TEH       0.069200
     20 H4           8.8130    -5.1180     7.1190 h1         1 TEH       0.069200
     21 H6           1.3330    -3.4300     4.1030 ha         1 TEH       0.111000
     22 H7           3.3020    -4.4350     3.0170 ha         1 TEH       0.118000
     23 H8           5.4740    -4.1060     6.7140 ha         1 TEH       0.118000
     24 H9           3.5200    -3.1220     7.7670 ha         1 TEH       0.111000
     25 H10          6.6960    -5.5710     5.6870 h1         1 TEH       0.071200
     26 H11          7.3560    -5.7390     4.0690 h1         1 TEH       0.071200
     27 H12          9.8500    -2.1630     4.7790 h1         1 TEH       0.067700
     28 H13          8.6300    -1.6710     5.9530 h1         1 TEH       0.067700
     29 H14         12.2310    -3.6040     6.7470 hn         1 TEH       0.328500
     30 C09          7.5110    -3.7320     4.8330 c          1 TEH       0.567100
     31 H5           1.4260    -2.7620     6.4920 ha         1 TEH       0.114000
@<TRIPOS>BOND
     1     1    11 1   
     2     1    13 1   
     3     1    17 1   
     4     1    18 1   
     5     2     3 1   
     6     2    13 1   
     7     2    16 2   
     8     3    12 1   
     9     3    19 1   
    10     3    20 1   
    11     4     5 ar  
    12     4     9 ar  
    13     4    31 1   
    14     5     6 ar  
    15     5    21 1   
    16     6     7 ar  
    17     6    22 1   
    18     7     8 ar  
    19     7    14 1   
    20     8     9 ar  
    21     8    23 1   
    22     9    24 1   
    23    10    14 1   
    24    10    25 1   
    25    10    26 1   
    26    10    30 1   
    27    11    12 1   
    28    11    27 1   
    29    11    28 1   
    30    12    30 1   
    31    13    29 1   
    32    15    30 2   
@<TRIPOS>SUBSTRUCTURE
     1 TEH         1 TEMP              0 ****  ****    0 ROOT
