@<TRIPOS>MOLECULE
TEI
   37    38     1     0     0
SMALL
No Charge or Current Charge


@<TRIPOS>ATOM
      1 S1          -1.0660     0.0290    -2.8000 ss         1 TEI       0.015600
      2 C2           0.3590    -0.0050    -1.7880 cc         1 TEI       0.382900
      3 N3           1.5190     0.0040    -2.4350 nd         1 TEI      -0.668000
      4 C4           1.3180     0.0390    -3.8090 cd         1 TEI       0.259300
      5 C5          -0.0110     0.0570    -4.1880 cc         1 TEI      -0.222600
      6 C6           0.2720    -0.0410    -0.3150 ca         1 TEI      -0.121500
      7 C7          -0.9770    -0.0500     0.3500 ca         1 TEI      -0.036000
      8 C8          -1.0490    -0.0850     1.7570 ca         1 TEI      -0.075000
      9 C9           0.1310    -0.1110     2.5270 ca         1 TEI       0.169100
     10 C10          1.3790    -0.1030     1.8720 ca         1 TEI      -0.219000
     11 C11          1.4470    -0.0680     0.4690 ca         1 TEI      -0.026000
     12 C12         -2.3370    -0.0910     2.3950 cg         1 TEI       0.358000
     13 N13         -3.3920    -0.0960     2.8970 n1         1 TEI      -0.492000
     14 O14          0.0300    -0.1450     3.9050 os         1 TEI      -0.344100
     15 C15          1.1830    -0.1540     4.7650 c3         1 TEI       0.169600
     16 C16          0.6960    -0.1810     6.2350 c3         1 TEI      -0.064700
     17 C17          1.8800    -0.3690     7.2100 c3         1 TEI      -0.087100
     18 C18         -0.1350     1.0720     6.6050 c3         1 TEI      -0.087100
     19 C19          2.5420     0.0540    -4.6910 c3         1 TEI      -0.106400
     20 C20         -0.5290     0.0940    -5.5760 c          1 TEI       0.736600
     21 O21         -1.7410     0.1060    -5.7350 o          1 TEI      -0.702000
     22 O22          0.2470     0.1130    -6.5170 o          1 TEI      -0.702000
     23 H7          -1.9060    -0.0300    -0.2170 ha         1 TEI       0.136000
     24 H10          2.3100    -0.1230     2.4310 ha         1 TEI       0.113000
     25 H11          2.4260    -0.0620    -0.0070 ha         1 TEI       0.139000
     26 H151         1.8000     0.7390     4.5990 h1         1 TEI       0.035700
     27 H152         1.7970    -1.0430     4.5690 h1         1 TEI       0.035700
     28 H16          0.0440    -1.0560     6.3470 hc         1 TEI       0.062700
     29 H171         1.5240    -0.4430     8.2440 hc         1 TEI       0.035533
     30 H172         2.4330    -1.2870     6.9770 hc         1 TEI       0.035533
     31 H173         2.5770     0.4770     7.1460 hc         1 TEI       0.035533
     32 H181         0.4620     1.9850     6.4870 hc         1 TEI       0.035533
     33 H182        -1.0230     1.1580     5.9670 hc         1 TEI       0.035533
     34 H183        -0.4760     1.0170     7.6460 hc         1 TEI       0.035533
     35 H191         2.5690     0.9570    -5.3110 hc         1 TEI       0.041367
     36 H192         3.4660     0.0340    -4.1020 hc         1 TEI       0.041367
     37 H193         2.5580    -0.8180    -5.3550 hc         1 TEI       0.041367
@<TRIPOS>BOND
     1     1     2 1   
     2     1     5 1   
     3     2     3 2   
     4     2     6 1   
     5     3     4 1   
     6     4     5 2   
     7     4    19 1   
     8     5    20 1   
     9     6     7 ar  
    10     6    11 ar  
    11     7     8 ar  
    12     7    23 1   
    13     8     9 ar  
    14     8    12 1   
    15     9    10 ar  
    16     9    14 1   
    17    10    11 ar  
    18    10    24 1   
    19    11    25 1   
    20    12    13 3   
    21    14    15 1   
    22    15    16 1   
    23    15    26 1   
    24    15    27 1   
    25    16    17 1   
    26    16    18 1   
    27    16    28 1   
    28    17    29 1   
    29    17    30 1   
    30    17    31 1   
    31    18    32 1   
    32    18    33 1   
    33    18    34 1   
    34    19    35 1   
    35    19    36 1   
    36    19    37 1   
    37    20    21 1   
    38    20    22 1   
@<TRIPOS>SUBSTRUCTURE
     1 TEI         1 TEMP              0 ****  ****    0 ROOT
