@<TRIPOS>MOLECULE
TEI
   37    38     1     0     0
SMALL
abcg2


@<TRIPOS>ATOM
      1 S1          -0.9830    -0.1650    -2.7730 ss         1 TEI       0.015600
      2 C2           0.3860    -0.0370    -1.7360 cc         1 TEI       0.382900
      3 N3           1.5160     0.0810    -2.3680 nd         1 TEI      -0.668000
      4 C4           1.3500     0.0840    -3.7250 cd         1 TEI       0.259300
      5 C5           0.0530    -0.0380    -4.1440 cc         1 TEI      -0.222600
      6 C6           0.2870    -0.0680    -0.2780 ca         1 TEI      -0.121500
      7 C7          -0.9380    -0.0430     0.3750 ca         1 TEI      -0.036000
      8 C8          -0.9980    -0.0720     1.7630 ca         1 TEI      -0.075000
      9 C9           0.1740    -0.1260     2.5370 ca         1 TEI       0.169100
     10 C10          1.4030    -0.1490     1.8800 ca         1 TEI      -0.219000
     11 C11          1.4480    -0.1180     0.4990 ca         1 TEI      -0.026000
     12 C12         -2.2580    -0.0390     2.4250 cg         1 TEI       0.358000
     13 N13         -3.2850    -0.0120     2.9470 n1         1 TEI      -0.492000
     14 O14          0.0030    -0.1520     3.8520 os         1 TEI      -0.344100
     15 C15          1.1360    -0.2020     4.7180 c3         1 TEI       0.169600
     16 C16          0.6420    -0.1740     6.1530 c3         1 TEI      -0.064700
     17 C17          1.8350    -0.3380     7.0890 c3         1 TEI      -0.087100
     18 C18         -0.1280     1.1050     6.4660 c3         1 TEI      -0.087100
     19 C19          2.5650     0.2160    -4.5790 c3         1 TEI      -0.106400
     20 C20         -0.6090    -0.0850    -5.4970 c          1 TEI       0.736600
     21 O21         -1.8450    -0.2370    -5.4570 o          1 TEI      -0.702000
     22 O22          0.1130     0.0310    -6.5020 o          1 TEI      -0.702000
     23 H7          -1.8670     0.0060    -0.1800 ha         1 TEI       0.136000
     24 H10          2.3290    -0.1940     2.4370 ha         1 TEI       0.113000
     25 H11          2.4120    -0.1390     0.0070 ha         1 TEI       0.139000
     26 H151         1.7940     0.6530     4.5240 h1         1 TEI       0.035700
     27 H152         1.7060    -1.1170     4.5250 h1         1 TEI       0.035700
     28 H16         -0.0260    -1.0310     6.2930 hc         1 TEI       0.062700
     29 H171         1.5050    -0.3580     8.1280 hc         1 TEI       0.035533
     30 H172         2.3780    -1.2640     6.8960 hc         1 TEI       0.035533
     31 H173         2.5360     0.4930     6.9810 hc         1 TEI       0.035533
     32 H181         0.5130     1.9830     6.3520 hc         1 TEI       0.035533
     33 H182        -0.9940     1.2340     5.8170 hc         1 TEI       0.035533
     34 H183        -0.4880     1.0920     7.4960 hc         1 TEI       0.035533
     35 H191         3.0790     1.1560    -4.3680 hc         1 TEI       0.041367
     36 H192         3.2700    -0.5890    -4.3660 hc         1 TEI       0.041367
     37 H193         2.3100     0.1890    -5.6320 hc         1 TEI       0.041367
@<TRIPOS>BOND
     1     1     2 1   
     2     1     5 1   
     3     2     3 2   
     4     2     6 1   
     5     3     4 1   
     6     4     5 2   
     7     4    19 1   
     8     5    20 1   
     9     6     7 ar  
    10     6    11 ar  
    11     7     8 ar  
    12     7    23 1   
    13     8     9 ar  
    14     8    12 1   
    15     9    10 ar  
    16     9    14 1   
    17    10    11 ar  
    18    10    24 1   
    19    11    25 1   
    20    12    13 3   
    21    14    15 1   
    22    15    16 1   
    23    15    26 1   
    24    15    27 1   
    25    16    17 1   
    26    16    18 1   
    27    16    28 1   
    28    17    29 1   
    29    17    30 1   
    30    17    31 1   
    31    18    32 1   
    32    18    33 1   
    33    18    34 1   
    34    19    35 1   
    35    19    36 1   
    36    19    37 1   
    37    20    21 1   
    38    20    22 1   
@<TRIPOS>SUBSTRUCTURE
     1 TEI         1 TEMP              0 ****  ****    0 ROOT
