@<TRIPOS>MOLECULE
TEJ
   69    72     1     0     0
SMALL
bcc


@<TRIPOS>ATOM
      1 O21          5.4820    -2.8710    -1.8120 o          1 TEJ      -0.567500
      2 C17          5.7080    -1.9650    -1.0530 c          1 TEJ       0.731800
      3 C18          6.1150    -2.0230     0.3720 ce         1 TEJ      -0.236400
      4 C20          6.1220    -3.1510     1.0690 c2         1 TEJ      -0.118000
      5 C19          6.4650    -0.6290     0.7810 c5         1 TEJ      -0.071200
      6 C15          5.7740     0.2100    -0.3030 c5         1 TEJ       0.151100
      7 O16          5.6240    -0.6890    -1.4270 os         1 TEJ      -0.402900
      8 C12          4.4120     0.7100     0.1390 c3         1 TEJ      -0.090400
      9 C10          3.5490     1.3690    -0.9420 c3         1 TEJ      -0.041700
     10 C11          4.3440     2.4430    -1.6880 c3         1 TEJ      -0.093100
     11 C7           2.2630     1.9830    -0.3670 c5         1 TEJ      -0.055700
     12 C8           1.3650     2.5870    -1.4840 c5         1 TEJ      -0.075400
     13 C9          -0.0990     2.3810    -1.0550 c5         1 TEJ      -0.071400
     14 C5           0.0170     1.9720     0.4030 c5         1 TEJ      -0.035500
     15 C6           1.2920     1.0900     0.4450 c5         1 TEJ      -0.037000
     16 C22          1.0540    -0.2440    -0.2670 c3         1 TEJ      -0.081100
     17 C4          -1.1380     1.3460     1.1170 c2         1 TEJ      -0.080400
     18 C3          -0.8100     1.0810     2.5610 c6         1 TEJ      -0.041200
     19 C2           0.4840     0.2750     2.7080 c6         1 TEJ      -0.072400
     20 C1           1.6510     0.8680     1.9180 c6         1 TEJ      -0.062400
     21 C23         -2.3090     1.0720     0.5190 ce         1 TEJ      -0.138000
     22 C24         -3.4530     0.4390     1.1440 ce         1 TEJ      -0.114000
     23 C25         -4.6490     0.2010     0.5790 cf         1 TEJ      -0.064200
     24 C26         -5.7380    -0.5310     1.3150 c6         1 TEJ      -0.074200
     25 C27         -6.2510    -1.7280     0.5100 c6         1 TEJ       0.153100
     26 O34         -7.3590    -2.3420     1.1340 oh         1 TEJ      -0.599800
     27 C73         -6.6980    -1.2730    -0.8710 c6         1 TEJ      -0.065400
     28 C29         -5.5910    -0.5510    -1.6250 c6         1 TEJ       0.188300
     29 O32         -4.5790    -1.4970    -1.9140 oh         1 TEJ      -0.592800
     30 C30         -5.0290     0.5820    -0.7950 cf         1 TEJ      -0.125200
     31 C31         -4.9340     1.8170    -1.2860 c2         1 TEJ      -0.196000
     32 H31         -5.2510     2.0430    -2.2970 ha         1 TEJ       0.118000
     33 H20          5.8400    -4.0920     0.6140 ha         1 TEJ       0.129500
     34 H20A         6.4050    -3.1740     2.1130 ha         1 TEJ       0.129500
     35 H19          6.1210    -0.3710     1.7820 hc         1 TEJ       0.069200
     36 H51          7.5470    -0.4830     0.7520 hc         1 TEJ       0.069200
     37 H15          6.4070     1.0280    -0.6440 h1         1 TEJ       0.080700
     38 H12          3.8760    -0.1320     0.5850 hc         1 TEJ       0.049700
     39 H12A         4.5850     1.4250     0.9510 hc         1 TEJ       0.049700
     40 H10          3.2590     0.6010    -1.6680 hc         1 TEJ       0.065700
     41 H11          4.7360     3.1930    -0.9960 hc         1 TEJ       0.034367
     42 H11A         5.1900     2.0230    -2.2330 hc         1 TEJ       0.034367
     43 H11B         3.7300     2.9610    -2.4230 hc         1 TEJ       0.034367
     44 H7           2.5680     2.8000     0.3020 hc         1 TEJ       0.041700
     45 H8           1.5910     3.6440    -1.6290 hc         1 TEJ       0.043200
     46 H8A          1.5610     2.0990    -2.4420 hc         1 TEJ       0.043200
     47 H9          -0.7100     3.2760    -1.1870 hc         1 TEJ       0.044700
     48 H9A         -0.5640     1.5910    -1.6490 hc         1 TEJ       0.044700
     49 H5           0.2780     2.8780     0.9720 hc         1 TEJ       0.052700
     50 H22          1.9120    -0.9080    -0.1610 hc         1 TEJ       0.036700
     51 H22A         0.1840    -0.7680     0.1320 hc         1 TEJ       0.036700
     52 H22B         0.8800    -0.1130    -1.3360 hc         1 TEJ       0.036700
     53 H3          -0.6760     2.0480     3.0610 hc         1 TEJ       0.046200
     54 H3A         -1.6190     0.5740     3.0870 hc         1 TEJ       0.046200
     55 H2           0.7520     0.2200     3.7660 hc         1 TEJ       0.041200
     56 H2A          0.3040    -0.7550     2.3880 hc         1 TEJ       0.041200
     57 H1           2.5140     0.2100     2.0290 hc         1 TEJ       0.037700
     58 H1A          1.9360     1.8300     2.3600 hc         1 TEJ       0.037700
     59 H23         -2.4220     1.3380    -0.5260 ha         1 TEJ       0.125000
     60 H24         -3.3260     0.0900     2.1640 ha         1 TEJ       0.119000
     61 H26         -5.3810    -0.8590     2.2960 hc         1 TEJ       0.051700
     62 H26A        -6.5820     0.1480     1.4860 hc         1 TEJ       0.051700
     63 H27         -5.4280    -2.4460     0.4020 h1         1 TEJ       0.050700
     64 HO34        -7.0690    -2.6990     1.9790 ho         1 TEJ       0.402000
     65 H73         -7.0470    -2.1260    -1.4610 hc         1 TEJ       0.062700
     66 H73A        -7.5450    -0.5870    -0.7680 hc         1 TEJ       0.062700
     67 H29         -6.0090    -0.1370    -2.5520 h1         1 TEJ       0.036700
     68 HO32        -3.8530    -1.0360    -2.3480 ho         1 TEJ       0.406000
     69 H31A        -4.5560     2.6430    -0.6970 ha         1 TEJ       0.118000
@<TRIPOS>BOND
     1     1     2 2   
     2     2     3 1   
     3     2     7 1   
     4     3     4 2   
     5     3     5 1   
     6     4    33 1   
     7     4    34 1   
     8     5     6 1   
     9     5    35 1   
    10     5    36 1   
    11     6     7 1   
    12     6     8 1   
    13     6    37 1   
    14     8     9 1   
    15     8    38 1   
    16     8    39 1   
    17     9    10 1   
    18     9    11 1   
    19     9    40 1   
    20    10    41 1   
    21    10    42 1   
    22    10    43 1   
    23    11    12 1   
    24    11    15 1   
    25    11    44 1   
    26    12    13 1   
    27    12    45 1   
    28    12    46 1   
    29    13    14 1   
    30    13    47 1   
    31    13    48 1   
    32    14    15 1   
    33    14    17 1   
    34    14    49 1   
    35    15    16 1   
    36    15    20 1   
    37    16    50 1   
    38    16    51 1   
    39    16    52 1   
    40    17    18 1   
    41    17    21 2   
    42    18    19 1   
    43    18    53 1   
    44    18    54 1   
    45    19    20 1   
    46    19    55 1   
    47    19    56 1   
    48    20    57 1   
    49    20    58 1   
    50    21    22 1   
    51    21    59 1   
    52    22    23 2   
    53    22    60 1   
    54    23    24 1   
    55    23    30 1   
    56    24    25 1   
    57    24    61 1   
    58    24    62 1   
    59    25    26 1   
    60    25    27 1   
    61    25    63 1   
    62    26    64 1   
    63    27    28 1   
    64    27    65 1   
    65    27    66 1   
    66    28    29 1   
    67    28    30 1   
    68    28    67 1   
    69    29    68 1   
    70    30    31 2   
    71    31    32 1   
    72    31    69 1   
@<TRIPOS>SUBSTRUCTURE
     1 TEJ         1 TEMP              0 ****  ****    0 ROOT
