@<TRIPOS>MOLECULE
TEJ
   69    72     1     0     0
SMALL
No Charge or Current Charge


@<TRIPOS>ATOM
      1 O21          5.8600    -2.8210    -1.3690 o          1 TEJ      -0.492000
      2 C17          6.1010    -1.7880    -0.7630 c          1 TEJ       0.656300
      3 C18          6.5390    -1.6920     0.6620 ce         1 TEJ      -0.236400
      4 C20          6.6530    -2.7380     1.5140 c2         1 TEJ      -0.218000
      5 C19          6.8280    -0.2190     0.9070 c5         1 TEJ      -0.071200
      6 C15          6.0480     0.4470    -0.2630 c5         1 TEJ       0.174300
      7 O16          6.0250    -0.5450    -1.3100 os         1 TEJ      -0.426100
      8 C12          4.5860     0.8210     0.1140 c3         1 TEJ      -0.090400
      9 C10          3.6660     1.3430    -1.0300 c3         1 TEJ      -0.041700
     10 C11          4.3690     2.4810    -1.8220 c3         1 TEJ      -0.093100
     11 C7           2.2320     1.8330    -0.5240 c5         1 TEJ      -0.055700
     12 C8           1.2750     2.1990    -1.7260 c5         1 TEJ      -0.075400
     13 C9          -0.1750     1.8630    -1.2620 c5         1 TEJ      -0.071400
     14 C5           0.0090     1.6960     0.2680 c5         1 TEJ      -0.035500
     15 C6           1.3220     0.8390     0.3450 c5         1 TEJ      -0.037000
     16 C22          1.1780    -0.6320    -0.2420 c3         1 TEJ      -0.081100
     17 C4          -1.1130     1.0000     1.0690 c2         1 TEJ      -0.080400
     18 C3          -0.7800     0.7380     2.5400 c6         1 TEJ      -0.041200
     19 C2           0.6010     0.0560     2.7150 c6         1 TEJ      -0.072400
     20 C1           1.7130     0.7270     1.8600 c6         1 TEJ      -0.062400
     21 C23         -2.3100     0.7660     0.4620 ce         1 TEJ      -0.188000
     22 C24         -3.4930     0.1420     1.0850 ce         1 TEJ      -0.164000
     23 C25         -4.7630     0.1200     0.5770 cf         1 TEJ      -0.064200
     24 C26         -5.8650    -0.6590     1.3220 c6         1 TEJ      -0.074200
     25 C27         -6.6820    -1.5560     0.3630 c6         1 TEJ       0.176300
     26 O34         -7.7530    -2.1890     1.0760 oh         1 TEJ      -0.662000
     27 C73         -7.2510    -0.7150    -0.8000 c6         1 TEJ      -0.065400
     28 C29         -6.1280    -0.0110    -1.5950 c6         1 TEJ       0.211500
     29 O32         -5.3960    -0.9650    -2.3670 oh         1 TEJ      -0.655000
     30 C30         -5.1960     0.7880    -0.6600 cf         1 TEJ      -0.125200
     31 C31         -4.8490     2.0610    -0.9680 c2         1 TEJ      -0.296000
     32 H31         -5.1970     2.5420    -1.8830 ha         1 TEJ       0.168000
     33 H20          6.4180    -3.7580     1.2090 ha         1 TEJ       0.179500
     34 H20A         6.9860    -2.6030     2.5440 ha         1 TEJ       0.179500
     35 H19          6.4840     0.1210     1.8910 hc         1 TEJ       0.069200
     36 H51          7.9030    -0.0110     0.8430 hc         1 TEJ       0.069200
     37 H15          6.5700     1.3460    -0.6190 h1         1 TEJ       0.080700
     38 H12          4.1270    -0.0810     0.5250 hc         1 TEJ       0.049700
     39 H12A         4.6030     1.5640     0.9210 hc         1 TEJ       0.049700
     40 H10          3.5840     0.4970    -1.7470 hc         1 TEJ       0.065700
     41 H11          4.6160     3.3220    -1.1620 hc         1 TEJ       0.034367
     42 H11A         5.2930     2.1300    -2.2950 hc         1 TEJ       0.034367
     43 H11B         3.7340     2.8600    -2.6300 hc         1 TEJ       0.034367
     44 H7           2.4280     2.7400     0.0630 hc         1 TEJ       0.041700
     45 H8           1.3710     3.2580    -1.9910 hc         1 TEJ       0.043200
     46 H8A          1.5200     1.6300    -2.6310 hc         1 TEJ       0.043200
     47 H9          -0.8810     2.6640    -1.5100 hc         1 TEJ       0.044700
     48 H9A         -0.5380     0.9510    -1.7500 hc         1 TEJ       0.044700
     49 H5           0.1670     2.6870     0.7140 hc         1 TEJ       0.052700
     50 H22          2.0560    -1.2410     0.0010 hc         1 TEJ       0.036700
     51 H22A         0.2980    -1.1550     0.1480 hc         1 TEJ       0.036700
     52 H22B         1.0930    -0.6330    -1.3350 hc         1 TEJ       0.036700
     53 H3          -0.7690     1.7010     3.0680 hc         1 TEJ       0.046200
     54 H3A         -1.5410     0.1320     3.0440 hc         1 TEJ       0.046200
     55 H2           0.8880     0.0790     3.7750 hc         1 TEJ       0.041200
     56 H2A          0.5180    -1.0080     2.4550 hc         1 TEJ       0.041200
     57 H1           2.6340     0.1530     2.0020 hc         1 TEJ       0.037700
     58 H1A          1.9180     1.7300     2.2580 hc         1 TEJ       0.037700
     59 H23         -2.4590     1.0400    -0.5790 ha         1 TEJ       0.175000
     60 H24         -3.3290    -0.3870     2.0220 ha         1 TEJ       0.169000
     61 H26         -5.4290    -1.2790     2.1170 hc         1 TEJ       0.051700
     62 H26A        -6.5300     0.0600     1.8200 hc         1 TEJ       0.051700
     63 H27         -6.0110    -2.3210    -0.0560 h1         1 TEJ       0.050700
     64 HO34        -7.3380    -2.7640     1.7550 ho         1 TEJ       0.441000
     65 H73         -7.8430    -1.3500    -1.4730 hc         1 TEJ       0.062700
     66 H73A        -7.9400     0.0430    -0.4030 hc         1 TEJ       0.062700
     67 H29         -6.6160     0.6970    -2.2820 h1         1 TEJ       0.036700
     68 HO32        -4.5920    -0.4950    -2.6750 ho         1 TEJ       0.445000
     69 H31A        -4.2240     2.6550    -0.3010 ha         1 TEJ       0.168000
@<TRIPOS>BOND
     1     1     2 2   
     2     2     3 1   
     3     2     7 1   
     4     3     4 2   
     5     3     5 1   
     6     4    33 1   
     7     4    34 1   
     8     5     6 1   
     9     5    35 1   
    10     5    36 1   
    11     6     7 1   
    12     6     8 1   
    13     6    37 1   
    14     8     9 1   
    15     8    38 1   
    16     8    39 1   
    17     9    10 1   
    18     9    11 1   
    19     9    40 1   
    20    10    41 1   
    21    10    42 1   
    22    10    43 1   
    23    11    12 1   
    24    11    15 1   
    25    11    44 1   
    26    12    13 1   
    27    12    45 1   
    28    12    46 1   
    29    13    14 1   
    30    13    47 1   
    31    13    48 1   
    32    14    15 1   
    33    14    17 1   
    34    14    49 1   
    35    15    16 1   
    36    15    20 1   
    37    16    50 1   
    38    16    51 1   
    39    16    52 1   
    40    17    18 1   
    41    17    21 2   
    42    18    19 1   
    43    18    53 1   
    44    18    54 1   
    45    19    20 1   
    46    19    55 1   
    47    19    56 1   
    48    20    57 1   
    49    20    58 1   
    50    21    22 1   
    51    21    59 1   
    52    22    23 2   
    53    22    60 1   
    54    23    24 1   
    55    23    30 1   
    56    24    25 1   
    57    24    61 1   
    58    24    62 1   
    59    25    26 1   
    60    25    27 1   
    61    25    63 1   
    62    26    64 1   
    63    27    28 1   
    64    27    65 1   
    65    27    66 1   
    66    28    29 1   
    67    28    30 1   
    68    28    67 1   
    69    29    68 1   
    70    30    31 2   
    71    31    32 1   
    72    31    69 1   
@<TRIPOS>SUBSTRUCTURE
     1 TEJ         1 TEMP              0 ****  ****    0 ROOT
