@<TRIPOS>MOLECULE
TEK
   28    29     1     0     0
SMALL
bcc


@<TRIPOS>ATOM
      1 N12         -0.1240    -6.3590     5.7480 ns         1 TEK      -0.508400
      2 C13         -0.8320    -6.4140     4.5720 c          1 TEK       0.684100
      3 C15         -2.2050    -7.0100     4.7320 c3         1 TEK      -0.183100
      4 C01          2.4910    -8.8120     6.1540 c3         1 TEK      -0.116100
      5 C02          2.0730    -7.7580     7.1650 c3         1 TEK       0.057300
      6 C04          3.2040    -5.6020     6.5450 ca         1 TEK      -0.076200
      7 C05          4.4820    -5.7210     7.0740 ca         1 TEK      -0.133000
      8 C06          5.3650    -4.6860     6.8070 ca         1 TEK      -0.115000
      9 C07          4.9810    -3.5740     6.0440 ca         1 TEK      -0.152000
     10 C08          3.7040    -3.4660     5.5200 ca         1 TEK      -0.067000
     11 C09          2.8040    -4.4990     5.7740 ca         1 TEK       0.080400
     12 C11          1.1270    -5.7880     5.8870 cc         1 TEK       0.485400
     13 N03          2.1000    -6.4180     6.6070 na         1 TEK      -0.176300
     14 N10          1.4930    -4.6420     5.3910 nd         1 TEK      -0.561100
     15 O14         -0.3870    -6.0190     3.5180 o          1 TEK      -0.532100
     16 H1          -0.5480    -6.7690     6.5680 hn         1 TEK       0.323500
     17 H2          -2.6740    -7.1380     3.7600 hc         1 TEK       0.064700
     18 H3          -2.1620    -7.9750     5.2370 hc         1 TEK       0.064700
     19 H4          -2.8300    -6.3530     5.3390 hc         1 TEK       0.064700
     20 H5           2.4780    -9.7970     6.6190 hc         1 TEK       0.049700
     21 H6           1.8110    -8.8320     5.3020 hc         1 TEK       0.049700
     22 H7           3.4990    -8.6260     5.7850 hc         1 TEK       0.049700
     23 H8           2.7390    -7.7640     8.0270 h1         1 TEK       0.051700
     24 H9           1.0770    -7.9640     7.5520 h1         1 TEK       0.051700
     25 H10          4.7860    -6.5780     7.6600 ha         1 TEK       0.132000
     26 H11          6.3730    -4.7390     7.1960 ha         1 TEK       0.129000
     27 H12          5.7010    -2.7870     5.8610 ha         1 TEK       0.131000
     28 H13          3.4100    -2.6070     4.9300 ha         1 TEK       0.148000
@<TRIPOS>BOND
     1     1     2 1   
     2     1    12 1   
     3     1    16 1   
     4     2     3 1   
     5     2    15 2   
     6     3    17 1   
     7     3    18 1   
     8     3    19 1   
     9     4     5 1   
    10     4    20 1   
    11     4    21 1   
    12     4    22 1   
    13     5    13 1   
    14     5    23 1   
    15     5    24 1   
    16     6     7 ar  
    17     6    11 ar  
    18     6    13 1   
    19     7     8 ar  
    20     7    25 1   
    21     8     9 ar  
    22     8    26 1   
    23     9    10 ar  
    24     9    27 1   
    25    10    11 ar  
    26    10    28 1   
    27    11    14 1   
    28    12    13 1   
    29    12    14 2   
@<TRIPOS>SUBSTRUCTURE
     1 TEK         1 TEMP              0 ****  ****    0 ROOT
