@<TRIPOS>MOLECULE
TEK
   28    29     1     0     0
SMALL
No Charge or Current Charge


@<TRIPOS>ATOM
      1 N12         -0.0840    -6.4650     5.4430 ns         1 TEK      -0.441400
      2 C13         -1.1260    -6.0020     4.6750 c          1 TEK       0.617100
      3 C15         -2.3380    -6.9270     4.6540 c3         1 TEK      -0.183100
      4 C01          2.6490    -8.9170     6.4420 c3         1 TEK      -0.116100
      5 C02          2.0890    -7.7270     7.2410 c3         1 TEK       0.086600
      6 C04          3.2070    -5.6300     6.4600 ca         1 TEK      -0.076200
      7 C05          4.4610    -5.7270     7.0820 ca         1 TEK      -0.115000
      8 C06          5.3830    -4.6840     6.8590 ca         1 TEK      -0.097000
      9 C07          5.0350    -3.5890     6.0320 ca         1 TEK      -0.134000
     10 C08          3.7620    -3.5310     5.4210 ca         1 TEK      -0.049000
     11 C09          2.8610    -4.5790     5.6560 ca         1 TEK       0.080400
     12 C11          1.1450    -5.8890     5.6710 cc         1 TEK       0.485400
     13 N03          2.1280    -6.4640     6.4820 na         1 TEK      -0.205600
     14 N10          1.5700    -4.7230     5.1520 nd         1 TEK      -0.561100
     15 O14         -1.1130    -4.9500     4.0520 o          1 TEK      -0.532100
     16 H1          -0.2580    -7.3510     5.8920 hn         1 TEK       0.323500
     17 H2          -3.1540    -6.5370     4.0350 hc         1 TEK       0.064700
     18 H3          -2.0220    -7.9230     4.3250 hc         1 TEK       0.064700
     19 H4          -2.6650    -7.1120     5.6840 hc         1 TEK       0.064700
     20 H5           2.6000    -9.8340     7.0410 hc         1 TEK       0.049700
     21 H6           2.0700    -9.0740     5.5240 hc         1 TEK       0.049700
     22 H7           3.6950    -8.7410     6.1670 hc         1 TEK       0.049700
     23 H8           2.6660    -7.6060     8.1670 h1         1 TEK       0.051700
     24 H9           1.0520    -7.9390     7.5310 h1         1 TEK       0.051700
     25 H10          4.7210    -6.5740     7.7130 ha         1 TEK       0.114000
     26 H11          6.3660    -4.7210     7.3240 ha         1 TEK       0.111000
     27 H12          5.7510    -2.7880     5.8650 ha         1 TEK       0.113000
     28 H13          3.4860    -2.6950     4.7820 ha         1 TEK       0.130000
@<TRIPOS>BOND
     1     1     2 1   
     2     1    12 1   
     3     1    16 1   
     4     2     3 1   
     5     2    15 2   
     6     3    17 1   
     7     3    18 1   
     8     3    19 1   
     9     4     5 1   
    10     4    20 1   
    11     4    21 1   
    12     4    22 1   
    13     5    13 1   
    14     5    23 1   
    15     5    24 1   
    16     6     7 ar  
    17     6    11 ar  
    18     6    13 1   
    19     7     8 ar  
    20     7    25 1   
    21     8     9 ar  
    22     8    26 1   
    23     9    10 ar  
    24     9    27 1   
    25    10    11 ar  
    26    10    28 1   
    27    11    14 1   
    28    12    13 1   
    29    12    14 2   
@<TRIPOS>SUBSTRUCTURE
     1 TEK         1 TEMP              0 ****  ****    0 ROOT
