@<TRIPOS>MOLECULE
TEL
  123   127     1     0     0
SMALL
No Charge or Current Charge


@<TRIPOS>ATOM
      1 C1          65.9530   -60.8780    -8.1850 c3         1 TEL      -0.079100
      2 C2          65.6100   -59.5150    -8.8520 c5         1 TEL       0.166000
      3 C3          66.6430   -58.9610    -9.9200 c5         1 TEL       0.102700
      4 C4          65.3530   -58.4230    -7.7460 c3         1 TEL       0.155300
      5 O5          64.3880   -59.7000    -9.6100 os         1 TEL      -0.429100
      6 N6          65.6530   -58.3080   -10.8020 n          1 TEL      -0.437800
      7 C7          67.5350   -60.0170   -10.6570 c3         1 TEL      -0.162700
      8 C8          64.0880   -58.6000    -6.8650 c3         1 TEL      -0.087400
      9 O9          66.4830   -58.4440    -6.8450 os         1 TEL      -0.459100
     10 C10         64.3670   -58.8090   -10.6340 c          1 TEL       0.685100
     11 C11         65.8730   -57.0800   -11.5920 c3         1 TEL       0.120000
     12 C12         66.7900   -60.8890   -11.7070 c3         1 TEL      -0.085100
     13 C13         68.8170   -59.4000   -11.2720 c          1 TEL       0.591100
     14 C14         63.8300   -57.4070    -5.9200 c3         1 TEL      -0.094100
     15 C15         67.3800   -57.4100    -6.8440 c          1 TEL       0.618100
     16 O16         63.3770   -58.5020   -11.2770 o          1 TEL      -0.529000
     17 C17         65.9900   -55.8500   -10.6760 c3         1 TEL      -0.118400
     18 O18         68.7600   -58.5710   -12.1690 o          1 TEL      -0.529100
     19 C19         70.1920   -59.9670   -10.8220 c3         1 TEL      -0.161700
     20 O20         67.1300   -56.3040    -7.2950 o          1 TEL      -0.489000
     21 C21         68.4470   -57.6700    -5.7940 c3         1 TEL      -0.223700
     22 C22         66.1830   -54.5160   -11.4310 c3         1 TEL      -0.089400
     23 C23         70.2690   -61.5140   -10.9450 c3         1 TEL      -0.085100
     24 C24         70.6430   -59.4810    -9.4020 c3         1 TEL      -0.061400
     25 C25         68.0040   -57.1600    -4.3980 c3         1 TEL      -0.078100
     26 C26         69.7760   -57.0570    -6.2420 c          1 TEL       0.594100
     27 C27         66.4460   -53.3150   -10.4940 c3         1 TEL       0.074600
     28 C28         70.9820   -57.9550    -9.2240 c3         1 TEL       0.186000
     29 O29         69.9460   -55.8440    -6.2640 o          1 TEL      -0.510100
     30 C30         70.9400   -58.0320    -6.5280 c3         1 TEL      -0.169700
     31 N31         65.4060   -53.1320    -9.4680 na         1 TEL      -0.175500
     32 O32         69.7060   -57.2610    -9.2530 os         1 TEL      -0.498000
     33 C33         71.8600   -57.4350   -10.4060 c3         1 TEL      -0.116100
     34 C34         71.7140   -57.6620    -7.8440 c3         1 TEL       0.166300
     35 C35         71.8230   -58.0920    -5.2490 c3         1 TEL      -0.092100
     36 C36         64.1090   -52.7180    -9.6810 cc         1 TEL      -0.206000
     37 C37         65.5420   -53.3840    -8.1170 cc         1 TEL       0.402400
     38 C38         69.7170   -55.8180    -9.4050 c3         1 TEL       0.138900
     39 O39         72.9570   -58.4030    -7.8620 os         1 TEL      -0.436000
     40 C40         63.5120   -52.7390    -8.4460 cd         1 TEL       0.288500
     41 N41         64.4060   -53.1480    -7.4780 nd         1 TEL      -0.680000
     42 C42         74.1590   -57.6960    -7.4950 c6         1 TEL       0.393300
     43 C43         62.1160   -52.3890    -8.1350 ca         1 TEL      -0.141500
     44 C44         75.3900   -58.6600    -7.4350 c6         1 TEL       0.150300
     45 O45         74.4150   -56.6770    -8.4850 os         1 TEL      -0.500000
     46 C46         61.6140   -52.4560    -6.8180 ca         1 TEL      -0.053000
     47 C47         61.2370   -51.9760    -9.1580 ca         1 TEL       0.332900
     48 O48         75.2850   -59.7350    -6.4790 oh         1 TEL      -0.717000
     49 C49         76.6540   -57.8310    -7.0770 c6         1 TEL       0.139500
     50 C50         75.5450   -55.8350    -8.1850 c6         1 TEL       0.183300
     51 C51         60.2720   -52.1090    -6.5920 ca         1 TEL      -0.166000
     52 N52         59.9420   -51.6410    -8.9420 nb         1 TEL      -0.670000
     53 N53         77.8540   -58.7110    -6.8780 n3         1 TEL      -0.741600
     54 C54         76.8400   -56.6870    -8.1110 c6         1 TEL      -0.133400
     55 C55         75.6090   -54.7560    -9.2900 c3         1 TEL      -0.087100
     56 C56         59.4750   -51.7090    -7.6760 ca         1 TEL       0.324900
     57 C57         78.3110   -59.4470    -8.0870 c3         1 TEL       0.153100
     58 C58         78.9760   -58.0250    -6.1930 c3         1 TEL       0.153100
     59 H1          65.2060   -61.1540    -7.4350 hc         1 TEL       0.055700
     60 H2          65.9790   -61.6920    -8.9160 hc         1 TEL       0.055700
     61 H3          66.9270   -60.8460    -7.6840 hc         1 TEL       0.055700
     62 H4          67.3120   -58.2260    -9.4550 h1         1 TEL       0.092700
     63 H5          65.2510   -57.4530    -8.2500 h1         1 TEL       0.079700
     64 H6          67.9000   -60.7030    -9.8910 hc         1 TEL       0.065700
     65 H7          63.2100   -58.7230    -7.5100 hc         1 TEL       0.063200
     66 H8          64.1700   -59.5130    -6.2640 hc         1 TEL       0.063200
     67 H9          66.7860   -57.1790   -12.1880 h1         1 TEL       0.075700
     68 H10         65.0440   -56.9320   -12.2960 h1         1 TEL       0.075700
     69 H11         65.9100   -61.3760   -11.2710 hc         1 TEL       0.048367
     70 H12         66.4560   -60.2810   -12.5570 hc         1 TEL       0.048367
     71 H13         67.4480   -61.6760   -12.0950 hc         1 TEL       0.048367
     72 H14         62.9050   -57.5620    -5.3510 hc         1 TEL       0.041700
     73 H15         64.6530   -57.2860    -5.2050 hc         1 TEL       0.041700
     74 H16         63.7280   -56.4750    -6.4890 hc         1 TEL       0.041700
     75 H17         65.0840   -55.7890   -10.0600 hc         1 TEL       0.058200
     76 H18         66.8290   -56.0000    -9.9920 hc         1 TEL       0.058200
     77 H19         70.9200   -59.5960   -11.5510 hc         1 TEL       0.076700
     78 H20         68.5530   -58.7580    -5.7220 hc         1 TEL       0.085700
     79 H21         67.0270   -54.6080   -12.1260 hc         1 TEL       0.053700
     80 H22         65.2920   -54.3120   -12.0390 hc         1 TEL       0.053700
     81 H23         71.3050   -61.8540   -10.8210 hc         1 TEL       0.041033
     82 H24         69.6640   -62.0200   -10.1840 hc         1 TEL       0.041033
     83 H25         69.9300   -61.8420   -11.9350 hc         1 TEL       0.041033
     84 H26         69.8720   -59.7670    -8.6770 hc         1 TEL       0.063200
     85 H27         71.5340   -60.0600    -9.1290 hc         1 TEL       0.063200
     86 H28         68.7720   -57.3740    -3.6440 hc         1 TEL       0.054367
     87 H29         67.8300   -56.0760    -4.4110 hc         1 TEL       0.054367
     88 H30         67.0750   -57.6500    -4.0830 hc         1 TEL       0.054367
     89 H31         67.4130   -53.4540    -9.9930 h1         1 TEL       0.062700
     90 H32         66.5130   -52.3970   -11.0910 h1         1 TEL       0.062700
     91 H33         70.5300   -59.0410    -6.6360 hc         1 TEL       0.075700
     92 H34         72.2750   -56.4440   -10.1900 hc         1 TEL       0.054700
     93 H35         72.7060   -58.1090   -10.5840 hc         1 TEL       0.054700
     94 H36         71.2830   -57.3580   -11.3340 hc         1 TEL       0.054700
     95 H37         71.9370   -56.5870    -7.8070 h1         1 TEL       0.069700
     96 H38         71.2120   -58.3390    -4.3720 hc         1 TEL       0.050700
     97 H39         72.5960   -58.8650    -5.3320 hc         1 TEL       0.050700
     98 H40         72.3080   -57.1270    -5.0590 hc         1 TEL       0.050700
     99 H41         63.7250   -52.4580   -10.6590 h4         1 TEL       0.157000
    100 H42         66.4730   -53.7270    -7.6780 h5         1 TEL       0.074100
    101 H43         68.7470   -55.3930    -9.1270 h1         1 TEL       0.041033
    102 H44         70.4750   -55.3430    -8.7720 h1         1 TEL       0.041033
    103 H45         69.9150   -55.5360   -10.4460 h1         1 TEL       0.041033
    104 H46         74.0240   -57.2220    -6.5120 h2         1 TEL       0.034700
    105 H47         75.5200   -59.0780    -8.4440 h1         1 TEL       0.060700
    106 H48         62.2450   -52.7680    -5.9880 ha         1 TEL       0.137000
    107 H49         61.5710   -51.9080   -10.1920 h4         1 TEL       0.011100
    108 H50         76.2350   -59.8780    -6.2310 ho         1 TEL       0.530000
    109 H51         76.4350   -57.3430    -6.1130 h1         1 TEL       0.061700
    110 H52         75.3710   -55.3380    -7.2190 h1         1 TEL       0.035700
    111 H53         59.8500   -52.1480    -5.5920 ha         1 TEL       0.120000
    112 H55         77.0680   -57.0970    -9.1040 hc         1 TEL       0.059200
    113 H56         77.6850   -56.0450    -7.8280 hc         1 TEL       0.059200
    114 H57         76.4350   -54.0580    -9.1100 hc         1 TEL       0.048033
    115 H58         75.7570   -55.2050   -10.2790 hc         1 TEL       0.048033
    116 H59         74.6820   -54.1710    -9.3200 hc         1 TEL       0.048033
    117 H60         58.4310   -51.4360    -7.5260 h4         1 TEL       0.016100
    118 H61         79.1230   -60.1410    -7.8280 h1         1 TEL       0.036533
    119 H62         77.5010   -60.0410    -8.5290 h1         1 TEL       0.036533
    120 H63         78.6910   -58.7570    -8.8510 h1         1 TEL       0.036533
    121 H64         78.6340   -57.5460    -5.2670 h1         1 TEL       0.036533
    122 H65         79.7630   -58.7440    -5.9280 h1         1 TEL       0.036533
    123 H66         79.4230   -57.2550    -6.8360 h1         1 TEL       0.036533
@<TRIPOS>BOND
     1     1     2 1   
     2     1    59 1   
     3     1    60 1   
     4     1    61 1   
     5     2     3 1   
     6     2     4 1   
     7     2     5 1   
     8     3     6 1   
     9     3     7 1   
    10     3    62 1   
    11     4     8 1   
    12     4     9 1   
    13     4    63 1   
    14     5    10 1   
    15     6    10 1   
    16     6    11 1   
    17     7    12 1   
    18     7    13 1   
    19     7    64 1   
    20     8    14 1   
    21     8    65 1   
    22     8    66 1   
    23     9    15 1   
    24    10    16 2   
    25    11    17 1   
    26    11    67 1   
    27    11    68 1   
    28    12    69 1   
    29    12    70 1   
    30    12    71 1   
    31    13    18 2   
    32    13    19 1   
    33    14    72 1   
    34    14    73 1   
    35    14    74 1   
    36    15    20 2   
    37    15    21 1   
    38    17    22 1   
    39    17    75 1   
    40    17    76 1   
    41    19    23 1   
    42    19    24 1   
    43    19    77 1   
    44    21    25 1   
    45    21    26 1   
    46    21    78 1   
    47    22    27 1   
    48    22    79 1   
    49    22    80 1   
    50    23    81 1   
    51    23    82 1   
    52    23    83 1   
    53    24    28 1   
    54    24    84 1   
    55    24    85 1   
    56    25    86 1   
    57    25    87 1   
    58    25    88 1   
    59    26    29 2   
    60    26    30 1   
    61    27    31 1   
    62    27    89 1   
    63    27    90 1   
    64    28    32 1   
    65    28    33 1   
    66    28    34 1   
    67    30    34 1   
    68    30    35 1   
    69    30    91 1   
    70    31    36 1   
    71    31    37 1   
    72    32    38 1   
    73    33    92 1   
    74    33    93 1   
    75    33    94 1   
    76    34    39 1   
    77    34    95 1   
    78    35    96 1   
    79    35    97 1   
    80    35    98 1   
    81    36    40 2   
    82    36    99 1   
    83    37    41 2   
    84    37   100 1   
    85    38   101 1   
    86    38   102 1   
    87    38   103 1   
    88    39    42 1   
    89    40    41 1   
    90    40    43 1   
    91    42    44 1   
    92    42    45 1   
    93    42   104 1   
    94    43    46 ar  
    95    43    47 ar  
    96    44    48 1   
    97    44    49 1   
    98    44   105 1   
    99    45    50 1   
   100    46    51 ar  
   101    46   106 1   
   102    47    52 ar  
   103    47   107 1   
   104    48   108 1   
   105    49    53 1   
   106    49    54 1   
   107    49   109 1   
   108    50    54 1   
   109    50    55 1   
   110    50   110 1   
   111    51    56 ar  
   112    51   111 1   
   113    52    56 ar  
   114    53    57 1   
   115    53    58 1   
   116    54   112 1   
   117    54   113 1   
   118    55   114 1   
   119    55   115 1   
   120    55   116 1   
   121    56   117 1   
   122    57   118 1   
   123    57   119 1   
   124    57   120 1   
   125    58   121 1   
   126    58   122 1   
   127    58   123 1   
@<TRIPOS>SUBSTRUCTURE
     1 TEL         1 TEMP              0 ****  ****    0 ROOT
