@<TRIPOS>MOLECULE
TEL
  123   127     1     0     0
SMALL
abcg2


@<TRIPOS>ATOM
      1 C1          66.1940   -60.7800    -8.2010 c3         1 TEL      -0.079100
      2 C2          65.8640   -59.4030    -8.7340 c5         1 TEL       0.166000
      3 C3          66.8100   -58.8030    -9.8180 c5         1 TEL       0.102700
      4 C4          65.6800   -58.3570    -7.6090 c3         1 TEL       0.155300
      5 O5          64.5850   -59.4820    -9.4310 os         1 TEL      -0.429100
      6 N6          65.8290   -58.1160   -10.6550 n          1 TEL      -0.437800
      7 C7          67.6770   -59.8420   -10.5680 c3         1 TEL      -0.162700
      8 C8          64.5340   -58.6250    -6.6470 c3         1 TEL      -0.087400
      9 O9          66.9270   -58.3470    -6.8620 os         1 TEL      -0.459100
     10 C10         64.5740   -58.5610   -10.4360 c          1 TEL       0.685100
     11 C11         66.0830   -56.8660   -11.3610 c3         1 TEL       0.120000
     12 C12         66.9000   -60.6380   -11.6250 c3         1 TEL      -0.085100
     13 C13         68.9050   -59.2320   -11.2390 c          1 TEL       0.591100
     14 C14         64.2910   -57.4690    -5.6790 c3         1 TEL      -0.094100
     15 C15         67.5130   -57.1760    -6.5770 c          1 TEL       0.618100
     16 O16         63.5470   -58.2430   -11.0050 o          1 TEL      -0.529000
     17 C17         65.9370   -55.6750   -10.4190 c3         1 TEL      -0.118400
     18 O18         68.7930   -58.3800   -12.1020 o          1 TEL      -0.529100
     19 C19         70.2680   -59.7840   -10.8640 c3         1 TEL      -0.161700
     20 O20         67.1370   -56.1040    -6.9880 o          1 TEL      -0.489000
     21 C21         68.6760   -57.3690    -5.6200 c3         1 TEL      -0.223700
     22 C22         66.2540   -54.3380   -11.0760 c3         1 TEL      -0.089400
     23 C23         70.3160   -61.3150   -10.9780 c3         1 TEL      -0.085100
     24 C24         70.7040   -59.3550    -9.4510 c3         1 TEL      -0.061400
     25 C25         68.4050   -56.5700    -4.3380 c3         1 TEL      -0.078100
     26 C26         69.9880   -56.9180    -6.2770 c          1 TEL       0.594100
     27 C27         66.3290   -53.2000   -10.0580 c3         1 TEL       0.074600
     28 C28         70.9770   -57.8580    -9.2410 c3         1 TEL       0.186000
     29 O29         70.2700   -55.7420    -6.3560 o          1 TEL      -0.510100
     30 C30         70.9530   -58.0190    -6.6720 c3         1 TEL      -0.169700
     31 N31         65.1320   -53.1180    -9.2260 na         1 TEL      -0.175500
     32 O32         69.6770   -57.2480    -9.0820 os         1 TEL      -0.498000
     33 C33         71.7580   -57.2580   -10.4080 c3         1 TEL      -0.116100
     34 C34         71.7680   -57.6350    -7.9180 c3         1 TEL       0.166300
     35 C35         71.8180   -58.2850    -5.4250 c3         1 TEL      -0.092100
     36 C36         63.8980   -52.6660    -9.6190 cc         1 TEL      -0.206000
     37 C37         64.9950   -53.6100    -7.9660 cc         1 TEL       0.402400
     38 C38         69.5560   -55.8610    -9.3820 c3         1 TEL       0.138900
     39 O39         72.9780   -58.3980    -8.0070 os         1 TEL      -0.436000
     40 C40         63.0500   -52.8930    -8.5560 cd         1 TEL       0.288500
     41 N41         63.7600   -53.4870    -7.5270 nd         1 TEL      -0.680000
     42 C42         74.1550   -57.7350    -7.6650 c6         1 TEL       0.393300
     43 C43         61.6250   -52.5940    -8.4400 ca         1 TEL      -0.141500
     44 C44         75.2690   -58.7590    -7.5060 c6         1 TEL       0.150300
     45 O45         74.4840   -56.8370    -8.7140 os         1 TEL      -0.500000
     46 C46         60.8920   -52.9550    -7.3070 ca         1 TEL      -0.053000
     47 C47         60.9290   -51.9350    -9.4630 ca         1 TEL       0.332900
     48 O48         74.9760   -59.6570    -6.4460 oh         1 TEL      -0.717000
     49 C49         76.5820   -58.0270    -7.2100 c6         1 TEL       0.139500
     50 C50         75.6690   -56.0650    -8.4530 c6         1 TEL       0.183300
     51 C51         59.5390   -52.6550    -7.2470 ca         1 TEL      -0.166000
     52 N52         59.6300   -51.6450    -9.4150 nb         1 TEL      -0.670000
     53 N53         77.6270   -59.0130    -6.9100 n3         1 TEL      -0.741600
     54 C54         76.8690   -56.9960    -8.3040 c6         1 TEL      -0.133400
     55 C55         75.8180   -55.0740    -9.5880 c3         1 TEL      -0.087100
     56 C56         58.9470   -52.0030    -8.3210 ca         1 TEL       0.324900
     57 C57         78.1490   -59.7270    -8.0700 c3         1 TEL       0.153100
     58 C58         78.7060   -58.4640    -6.0990 c3         1 TEL       0.153100
     59 H1          65.4300   -61.0950    -7.4930 hc         1 TEL       0.055700
     60 H2          66.2310   -61.5120    -9.0050 hc         1 TEL       0.055700
     61 H3          67.1540   -60.7690    -7.6890 hc         1 TEL       0.055700
     62 H4          67.4780   -58.0810    -9.3540 h1         1 TEL       0.092700
     63 H5          65.5520   -57.3770    -8.0660 h1         1 TEL       0.079700
     64 H6          68.0400   -60.5290    -9.8070 hc         1 TEL       0.065700
     65 H7          63.6390   -58.8000    -7.2450 hc         1 TEL       0.063200
     66 H8          64.7340   -59.5420    -6.0900 hc         1 TEL       0.063200
     67 H9          67.0850   -56.9190   -11.7780 h1         1 TEL       0.075700
     68 H10         65.3770   -56.7980   -12.1880 h1         1 TEL       0.075700
     69 H11         66.0200   -61.1120   -11.1910 hc         1 TEL       0.048367
     70 H12         66.5740   -59.9800   -12.4300 hc         1 TEL       0.048367
     71 H13         67.5270   -61.4200   -12.0530 hc         1 TEL       0.048367
     72 H14         63.4350   -57.6880    -5.0380 hc         1 TEL       0.041700
     73 H15         65.1530   -57.2980    -5.0310 hc         1 TEL       0.041700
     74 H16         64.0840   -56.5420    -6.2170 hc         1 TEL       0.041700
     75 H17         64.9190   -55.6640   -10.0240 hc         1 TEL       0.058200
     76 H18         66.5990   -55.8210    -9.5640 hc         1 TEL       0.058200
     77 H19         70.9650   -59.3730   -11.5940 hc         1 TEL       0.076700
     78 H20         68.7470   -58.4300    -5.3940 hc         1 TEL       0.085700
     79 H21         67.2220   -54.3860   -11.5830 hc         1 TEL       0.053700
     80 H22         65.5060   -54.1040   -11.8390 hc         1 TEL       0.053700
     81 H23         71.3420   -61.6490   -10.8200 hc         1 TEL       0.041033
     82 H24         69.6890   -61.8020   -10.2300 hc         1 TEL       0.041033
     83 H25         69.9980   -61.6520   -11.9660 hc         1 TEL       0.041033
     84 H26         69.9530   -59.6810    -8.7290 hc         1 TEL       0.063200
     85 H27         71.6200   -59.8990    -9.2220 hc         1 TEL       0.063200
     86 H28         69.2210   -56.7220    -3.6310 hc         1 TEL       0.054367
     87 H29         68.3270   -55.5080    -4.5630 hc         1 TEL       0.054367
     88 H30         67.4760   -56.9040    -3.8750 hc         1 TEL       0.054367
     89 H31         67.1710   -53.3540    -9.3840 h1         1 TEL       0.062700
     90 H32         66.4660   -52.2410   -10.5580 h1         1 TEL       0.062700
     91 H33         70.3770   -58.9230    -6.8660 hc         1 TEL       0.075700
     92 H34         72.0940   -56.2480   -10.1800 hc         1 TEL       0.054700
     93 H35         72.6430   -57.8610   -10.6020 hc         1 TEL       0.054700
     94 H36         71.1500   -57.2310   -11.3090 hc         1 TEL       0.054700
     95 H37         72.0230   -56.5770    -7.8520 h1         1 TEL       0.069700
     96 H38         71.1890   -58.5830    -4.5840 hc         1 TEL       0.050700
     97 H39         72.5260   -59.0860    -5.6290 hc         1 TEL       0.050700
     98 H40         72.3730   -57.3920    -5.1350 hc         1 TEL       0.050700
     99 H41         63.7420   -52.2350   -10.5920 h4         1 TEL       0.157000
    100 H42         65.8200   -54.0560    -7.4340 h5         1 TEL       0.074100
    101 H43         68.6060   -55.5440    -8.9620 h1         1 TEL       0.041033
    102 H44         70.3490   -55.2710    -8.9210 h1         1 TEL       0.041033
    103 H45         69.5520   -55.6900   -10.4600 h1         1 TEL       0.041033
    104 H46         74.0290   -57.1650    -6.7340 h2         1 TEL       0.034700
    105 H47         75.3390   -59.3020    -8.4560 h1         1 TEL       0.060700
    106 H48         61.3850   -53.4630    -6.4900 ha         1 TEL       0.137000
    107 H49         61.4520   -51.6270   -10.3620 h4         1 TEL       0.011100
    108 H50         75.8540   -59.9500    -6.1390 ho         1 TEL       0.530000
    109 H51         76.4200   -57.4830    -6.2740 h1         1 TEL       0.061700
    110 H52         75.5210   -55.5220    -7.5090 h1         1 TEL       0.035700
    111 H53         58.9490   -52.9240    -6.3810 ha         1 TEL       0.120000
    112 H55         77.0520   -57.4870    -9.2630 hc         1 TEL       0.059200
    113 H56         77.7550   -56.4090    -8.0530 hc         1 TEL       0.059200
    114 H57         76.6900   -54.4420    -9.4190 hc         1 TEL       0.048033
    115 H58         75.9490   -55.5990   -10.5370 hc         1 TEL       0.048033
    116 H59         74.9360   -54.4350    -9.6600 hc         1 TEL       0.048033
    117 H60         57.8910   -51.7570    -8.3050 h4         1 TEL       0.016100
    118 H61         78.7690   -60.5560    -7.7260 h1         1 TEL       0.036533
    119 H62         77.3340   -60.1390    -8.6650 h1         1 TEL       0.036533
    120 H63         78.7640   -59.0920    -8.7230 h1         1 TEL       0.036533
    121 H64         78.2940   -57.9950    -5.2050 h1         1 TEL       0.036533
    122 H65         79.3720   -59.2720    -5.7910 h1         1 TEL       0.036533
    123 H66         79.3090   -57.7170    -6.6370 h1         1 TEL       0.036533
@<TRIPOS>BOND
     1     1     2 1   
     2     1    59 1   
     3     1    60 1   
     4     1    61 1   
     5     2     3 1   
     6     2     4 1   
     7     2     5 1   
     8     3     6 1   
     9     3     7 1   
    10     3    62 1   
    11     4     8 1   
    12     4     9 1   
    13     4    63 1   
    14     5    10 1   
    15     6    10 1   
    16     6    11 1   
    17     7    12 1   
    18     7    13 1   
    19     7    64 1   
    20     8    14 1   
    21     8    65 1   
    22     8    66 1   
    23     9    15 1   
    24    10    16 2   
    25    11    17 1   
    26    11    67 1   
    27    11    68 1   
    28    12    69 1   
    29    12    70 1   
    30    12    71 1   
    31    13    18 2   
    32    13    19 1   
    33    14    72 1   
    34    14    73 1   
    35    14    74 1   
    36    15    20 2   
    37    15    21 1   
    38    17    22 1   
    39    17    75 1   
    40    17    76 1   
    41    19    23 1   
    42    19    24 1   
    43    19    77 1   
    44    21    25 1   
    45    21    26 1   
    46    21    78 1   
    47    22    27 1   
    48    22    79 1   
    49    22    80 1   
    50    23    81 1   
    51    23    82 1   
    52    23    83 1   
    53    24    28 1   
    54    24    84 1   
    55    24    85 1   
    56    25    86 1   
    57    25    87 1   
    58    25    88 1   
    59    26    29 2   
    60    26    30 1   
    61    27    31 1   
    62    27    89 1   
    63    27    90 1   
    64    28    32 1   
    65    28    33 1   
    66    28    34 1   
    67    30    34 1   
    68    30    35 1   
    69    30    91 1   
    70    31    36 1   
    71    31    37 1   
    72    32    38 1   
    73    33    92 1   
    74    33    93 1   
    75    33    94 1   
    76    34    39 1   
    77    34    95 1   
    78    35    96 1   
    79    35    97 1   
    80    35    98 1   
    81    36    40 2   
    82    36    99 1   
    83    37    41 2   
    84    37   100 1   
    85    38   101 1   
    86    38   102 1   
    87    38   103 1   
    88    39    42 1   
    89    40    41 1   
    90    40    43 1   
    91    42    44 1   
    92    42    45 1   
    93    42   104 1   
    94    43    46 ar  
    95    43    47 ar  
    96    44    48 1   
    97    44    49 1   
    98    44   105 1   
    99    45    50 1   
   100    46    51 ar  
   101    46   106 1   
   102    47    52 ar  
   103    47   107 1   
   104    48   108 1   
   105    49    53 1   
   106    49    54 1   
   107    49   109 1   
   108    50    54 1   
   109    50    55 1   
   110    50   110 1   
   111    51    56 ar  
   112    51   111 1   
   113    52    56 ar  
   114    53    57 1   
   115    53    58 1   
   116    54   112 1   
   117    54   113 1   
   118    55   114 1   
   119    55   115 1   
   120    55   116 1   
   121    56   117 1   
   122    57   118 1   
   123    57   119 1   
   124    57   120 1   
   125    58   121 1   
   126    58   122 1   
   127    58   123 1   
@<TRIPOS>SUBSTRUCTURE
     1 TEL         1 TEMP              0 ****  ****    0 ROOT
