@<TRIPOS>MOLECULE
TEM
   22    21     1     0     0
SMALL
No Charge or Current Charge


@<TRIPOS>ATOM
      1 O1           1.0230     0.5470     1.2170 oh         1 TEM      -0.647000
      2 C2          -0.2180    -0.1300     1.4340 c3         1 TEM       0.146300
      3 C3          -0.2810    -1.3660     0.4880 c3         1 TEM       0.190800
      4 N4           0.2850    -1.0610    -0.8510 nu         1 TEM      -0.817200
      5 C5          -0.2820    -0.1640    -1.7460 c2         1 TEM       0.109000
      6 C6           0.2830    -0.0520    -2.9560 ce         1 TEM      -0.474200
      7 C7          -0.2300     0.8690    -3.9970 c          1 TEM       0.592100
      8 O8           0.2900     0.9690    -5.1000 o          1 TEM      -0.552100
      9 C9          -0.3400    -0.4930     2.9250 c3         1 TEM      -0.245400
     10 C10         -0.3420     0.7640     3.7910 c          1 TEM       0.576900
     11 O11         -1.3560     1.4190     4.0130 o          1 TEM      -0.505100
     12 HO1          1.2430     0.3140     0.2820 ho         1 TEM       0.441000
     13 H2          -1.0530     0.5330     1.1610 h1         1 TEM       0.088700
     14 H31          0.2890    -2.1880     0.9430 h1         1 TEM       0.058200
     15 H32         -1.3230    -1.7020     0.3970 h1         1 TEM       0.058200
     16 HN4          0.9480    -1.7420    -1.2360 hn         1 TEM       0.496000
     17 H5          -1.1600     0.4050    -1.4160 h4         1 TEM       0.178000
     18 H6           1.1560    -0.6350    -3.2410 ha         1 TEM       0.198000
     19 H7          -1.1220     1.4740    -3.7210 h4         1 TEM      -0.043800
     20 H91         -1.2740    -1.0440     3.0840 hc         1 TEM       0.073700
     21 H92          0.5280    -1.1050     3.1970 hc         1 TEM       0.073700
     22 H10          0.6410     1.0590     4.2210 h4         1 TEM       0.003200
@<TRIPOS>BOND
     1     1     2 1   
     2     1    12 1   
     3     2     3 1   
     4     2     9 1   
     5     2    13 1   
     6     3     4 1   
     7     3    14 1   
     8     3    15 1   
     9     4     5 1   
    10     4    16 1   
    11     5     6 2   
    12     5    17 1   
    13     6     7 1   
    14     6    18 1   
    15     7     8 2   
    16     7    19 1   
    17     9    10 1   
    18     9    20 1   
    19     9    21 1   
    20    10    11 2   
    21    10    22 1   
@<TRIPOS>SUBSTRUCTURE
     1 TEM         1 TEMP              0 ****  ****    0 ROOT
