@<TRIPOS>MOLECULE
TEM
   22    21     1     0     0
SMALL
bcc


@<TRIPOS>ATOM
      1 O1           1.5340     0.0450     1.5400 oh         1 TEM      -0.584800
      2 C2           0.1370    -0.0790     1.4140 c3         1 TEM       0.123100
      3 C3          -0.2450    -1.1360     0.3780 c3         1 TEM       0.190800
      4 N4           0.3400    -0.8780    -0.9150 nu         1 TEM      -0.762000
      5 C5          -0.2970    -0.2720    -1.9090 c2         1 TEM       0.159000
      6 C6           0.2300     0.0960    -3.1150 ce         1 TEM      -0.424200
      7 C7          -0.6270     0.7150    -4.0720 c          1 TEM       0.592100
      8 O8          -0.3070     1.1010    -5.1890 o          1 TEM      -0.552100
      9 C9          -0.5420    -0.3850     2.7500 c3         1 TEM      -0.245400
     10 C10         -0.3190     0.6880     3.7730 c          1 TEM       0.576900
     11 O11         -1.1640     1.0850     4.5360 o          1 TEM      -0.505100
     12 HO1          1.8890    -0.7800     1.8900 ho         1 TEM       0.402000
     13 H2          -0.2110     0.8930     1.0490 h1         1 TEM       0.088700
     14 H31          0.0720    -2.1250     0.7200 h1         1 TEM       0.058200
     15 H32         -1.3300    -1.1690     0.2690 h1         1 TEM       0.058200
     16 HN4          1.3280    -1.0580    -1.0180 hn         1 TEM       0.440800
     17 H5          -1.3490    -0.0750    -1.7180 h4         1 TEM       0.128000
     18 H6           1.2760    -0.0720    -3.3480 ha         1 TEM       0.148000
     19 H7          -1.6730     0.8380    -3.7260 h4         1 TEM      -0.043800
     20 H91         -1.6140    -0.5470     2.6180 hc         1 TEM       0.073700
     21 H92         -0.1270    -1.3170     3.1570 hc         1 TEM       0.073700
     22 H10          0.7040     1.1010     3.8030 h4         1 TEM       0.003200
@<TRIPOS>BOND
     1     1     2 1   
     2     1    12 1   
     3     2     3 1   
     4     2     9 1   
     5     2    13 1   
     6     3     4 1   
     7     3    14 1   
     8     3    15 1   
     9     4     5 1   
    10     4    16 1   
    11     5     6 2   
    12     5    17 1   
    13     6     7 1   
    14     6    18 1   
    15     7     8 2   
    16     7    19 1   
    17     9    10 1   
    18     9    20 1   
    19     9    21 1   
    20    10    11 2   
    21    10    22 1   
@<TRIPOS>SUBSTRUCTURE
     1 TEM         1 TEMP              0 ****  ****    0 ROOT
