@<TRIPOS>MOLECULE
TEN
   26    25     1     0     0
SMALL
No Charge or Current Charge


@<TRIPOS>ATOM
      1 P1           0.0900     0.5540     0.2310 p5         1 TEN       1.376200
      2 O1           0.7760     1.8560     0.4580 o          1 TEN      -0.559000
      3 O2           0.6760    -0.6770     1.1000 os         1 TEN      -0.608067
      4 C1           1.3790    -0.4680     2.3350 c3         1 TEN       0.216267
      5 C2           0.4320     0.1430     3.3890 c3         1 TEN      -0.097100
      6 O3           0.2010     0.0020    -1.2800 os         1 TEN      -0.608067
      7 C3           0.2230     0.9400    -2.3570 c3         1 TEN       0.216267
      8 C4          -0.0270     0.1530    -3.6520 c3         1 TEN      -0.097100
      9 O4          -1.4960     0.5230     0.5550 os         1 TEN      -0.608067
     10 C5          -2.2670    -0.6820     0.7310 c3         1 TEN       0.216267
     11 C6          -2.2900    -1.5280    -0.5580 c3         1 TEN      -0.097100
     12 H11          2.2420     0.1950     2.1880 h1         1 TEN       0.038200
     13 H12          1.7580    -1.4270     2.7120 h1         1 TEN       0.038200
     14 H21          0.9360     0.1840     4.3620 hc         1 TEN       0.046811
     15 H22          0.1350     1.1640     3.1260 hc         1 TEN       0.046811
     16 H23         -0.4700    -0.4710     3.5020 hc         1 TEN       0.046811
     17 H31         -0.5600     1.7020    -2.2370 h1         1 TEN       0.038200
     18 H32          1.1960     1.4460    -2.4160 h1         1 TEN       0.038200
     19 H41         -0.0170     0.8300    -4.5150 hc         1 TEN       0.046811
     20 H42          0.7510    -0.6050    -3.8000 hc         1 TEN       0.046811
     21 H43         -1.0030    -0.3460    -3.6180 hc         1 TEN       0.046811
     22 H51         -1.8700    -1.2870     1.5570 h1         1 TEN       0.038200
     23 H52         -3.3000    -0.4160     0.9890 h1         1 TEN       0.038200
     24 H61         -3.0500    -2.3130    -0.4730 hc         1 TEN       0.046811
     25 H62         -2.5380    -0.9080    -1.4280 hc         1 TEN       0.046811
     26 H63         -1.3270    -2.0210    -0.7290 hc         1 TEN       0.046811
@<TRIPOS>BOND
     1     1     2 2   
     2     1     3 1   
     3     1     6 1   
     4     1     9 1   
     5     3     4 1   
     6     4     5 1   
     7     4    12 1   
     8     4    13 1   
     9     5    14 1   
    10     5    15 1   
    11     5    16 1   
    12     6     7 1   
    13     7     8 1   
    14     7    17 1   
    15     7    18 1   
    16     8    19 1   
    17     8    20 1   
    18     8    21 1   
    19     9    10 1   
    20    10    11 1   
    21    10    22 1   
    22    10    23 1   
    23    11    24 1   
    24    11    25 1   
    25    11    26 1   
@<TRIPOS>SUBSTRUCTURE
     1 TEN         1 TEMP              0 ****  ****    0 ROOT
