@<TRIPOS>MOLECULE
TEN
   26    25     1     0     0
SMALL
abcg2


@<TRIPOS>ATOM
      1 P1           0.3400     0.7150     0.0320 p5         1 TEN       1.376200
      2 O1           0.9610     2.0530     0.0180 o          1 TEN      -0.559000
      3 O2           0.7750    -0.2790     1.1970 os         1 TEN      -0.608067
      4 C1           0.8330     0.2030     2.5560 c3         1 TEN       0.216267
      5 C2           0.7680    -0.9820     3.4860 c3         1 TEN      -0.097100
      6 O3           0.6630    -0.2520    -1.1910 os         1 TEN      -0.608067
      7 C3           0.3350     0.1560    -2.5350 c3         1 TEN       0.216267
      8 C4           0.9630    -0.8230    -3.4950 c3         1 TEN      -0.097100
      9 O4          -1.2470     0.8630     0.1070 os         1 TEN      -0.608067
     10 C5          -2.1270    -0.2690     0.2290 c3         1 TEN       0.216267
     11 C6          -3.5090     0.1540    -0.2040 c3         1 TEN      -0.097100
     12 H11          0.0040     0.8860     2.7550 h1         1 TEN       0.038200
     13 H12          1.7630     0.7570     2.6920 h1         1 TEN       0.038200
     14 H21          0.8310    -0.6300     4.5150 hc         1 TEN       0.046811
     15 H22         -0.1700    -1.5260     3.3740 hc         1 TEN       0.046811
     16 H23          1.5950    -1.6700     3.3160 hc         1 TEN       0.046811
     17 H31         -0.7510     0.1710    -2.6530 h1         1 TEN       0.038200
     18 H32          0.7090     1.1660    -2.7180 h1         1 TEN       0.038200
     19 H41          0.6990    -0.5420    -4.5140 hc         1 TEN       0.046811
     20 H42          2.0490    -0.8190    -3.4140 hc         1 TEN       0.046811
     21 H43          0.6020    -1.8370    -3.3240 hc         1 TEN       0.046811
     22 H51         -1.7730    -1.0980    -0.3880 h1         1 TEN       0.038200
     23 H52         -2.1340    -0.6050     1.2680 h1         1 TEN       0.038200
     24 H61         -4.1940    -0.6860    -0.0920 hc         1 TEN       0.046811
     25 H62         -3.8840     0.9750     0.4060 hc         1 TEN       0.046811
     26 H63         -3.5220     0.4620    -1.2500 hc         1 TEN       0.046811
@<TRIPOS>BOND
     1     1     2 2   
     2     1     3 1   
     3     1     6 1   
     4     1     9 1   
     5     3     4 1   
     6     4     5 1   
     7     4    12 1   
     8     4    13 1   
     9     5    14 1   
    10     5    15 1   
    11     5    16 1   
    12     6     7 1   
    13     7     8 1   
    14     7    17 1   
    15     7    18 1   
    16     8    19 1   
    17     8    20 1   
    18     8    21 1   
    19     9    10 1   
    20    10    11 1   
    21    10    22 1   
    22    10    23 1   
    23    11    24 1   
    24    11    25 1   
    25    11    26 1   
@<TRIPOS>SUBSTRUCTURE
     1 TEN         1 TEMP              0 ****  ****    0 ROOT
