@<TRIPOS>MOLECULE
TEO
   12    11     1     0     0
SMALL
abcg2


@<TRIPOS>ATOM
      1 C1           1.7550     0.2620    -0.1650 c          1 TEO       0.690000
      2 O1A          1.9410    -0.3450    -1.2420 o          1 TEO      -0.835500
      3 O1B          2.3980     1.2780     0.2080 o          1 TEO      -0.835500
      4 C2           0.6320    -0.2040     0.7760 c3         1 TEO       0.222500
      5 O2           0.3160    -1.5670     0.6150 oh         1 TEO      -0.856000
      6 C3          -0.5920     0.6730     0.5800 c2         1 TEO      -0.790200
      7 C4          -1.7200     0.2630    -0.1530 c          1 TEO       0.702000
      8 O4A         -2.6810     1.0550    -0.4430 o          1 TEO      -0.909000
      9 O4B         -1.8050    -0.9980    -0.5280 o          1 TEO      -0.909000
     10 H2           1.0300    -0.0600     1.8030 h1         1 TEO      -0.089300
     11 HO2         -0.5610    -1.5130     0.0900 ho         1 TEO       0.524000
     12 H3          -0.4710     1.7290     0.8110 ha         1 TEO       0.087000
@<TRIPOS>BOND
     1     1     2 1   
     2     1     3 1   
     3     1     4 1   
     4     4     5 1   
     5     4     6 1   
     6     4    10 1   
     7     5    11 1   
     8     6     7 2   
     9     6    12 1   
    10     7     8 1   
    11     7     9 1   
@<TRIPOS>SUBSTRUCTURE
     1 TEO         1 TEMP              0 ****  ****    0 ROOT
