@<TRIPOS>MOLECULE
TEO
   12    11     1     0     0
SMALL
No Charge or Current Charge


@<TRIPOS>ATOM
      1 C1           1.8330     0.2400    -0.2610 c          1 TEO       0.690000
      2 O1A          1.7980    -0.2180    -1.4020 o          1 TEO      -0.835500
      3 O1B          2.7670     0.9490     0.1050 o          1 TEO      -0.835500
      4 C2           0.6400    -0.1020     0.8040 c3         1 TEO       0.222500
      5 O2           0.2380    -1.4540     0.8470 oh         1 TEO      -0.856000
      6 C3          -0.6910     0.6010     0.6010 c2         1 TEO      -0.790200
      7 C4          -1.7230     0.1820    -0.2860 c          1 TEO       0.702000
      8 O4A         -2.6600     0.9330    -0.4220 o          1 TEO      -0.909000
      9 O4B         -1.6600    -0.9350    -0.7510 o          1 TEO      -0.909000
     10 H2           0.9950     0.1700     1.8080 h1         1 TEO      -0.089300
     11 HO2         -0.5460    -1.3570     0.2090 ho         1 TEO       0.524000
     12 H3          -0.7490     1.5640     1.1000 ha         1 TEO       0.087000
@<TRIPOS>BOND
     1     1     2 1   
     2     1     3 1   
     3     1     4 1   
     4     4     5 1   
     5     4     6 1   
     6     4    10 1   
     7     5    11 1   
     8     6     7 2   
     9     6    12 1   
    10     7     8 1   
    11     7     9 1   
@<TRIPOS>SUBSTRUCTURE
     1 TEO         1 TEMP              0 ****  ****    0 ROOT
