@<TRIPOS>MOLECULE
TEP
   21    22     1     0     0
SMALL
No Charge or Current Charge


@<TRIPOS>ATOM
      1 C1           1.3050    -0.0490     2.8000 c3         1 TEP       0.085300
      2 N1           0.6560    -0.0110     1.4610 n          1 TEP      -0.372400
      3 C2          -0.7520    -0.0150     1.4120 c          1 TEP       0.616000
      4 O2          -1.4190    -0.0570     2.4380 o          1 TEP      -0.551000
      5 N3          -1.3780     0.0270     0.1530 n          1 TEP      -0.357300
      6 C3          -2.8610     0.0290     0.0960 c3         1 TEP       0.101300
      7 C4          -0.6100     0.0490    -0.9870 cc         1 TEP       0.436900
      8 C5           0.7360     0.0370    -0.9370 cd         1 TEP      -0.352600
      9 C6           1.4760     0.0030     0.3250 c          1 TEP       0.634600
     10 O6           2.6980    -0.0150     0.3650 o          1 TEP      -0.536000
     11 N7           1.1560     0.0610    -2.2630 na         1 TEP      -0.248500
     12 C8           0.0130     0.0850    -3.0440 cd         1 TEP       0.449400
     13 N9          -1.0690     0.0770    -2.2690 nc         1 TEP      -0.704000
     14 H11          1.2950    -1.0780     3.1840 h1         1 TEP       0.058033
     15 H12          2.3440     0.3010     2.7530 h1         1 TEP       0.058033
     16 H13          0.7680     0.5990     3.5030 h1         1 TEP       0.058033
     17 H31         -3.2580     0.8080     0.7600 h1         1 TEP       0.059367
     18 H32         -3.2230     0.2290    -0.9200 h1         1 TEP       0.059367
     19 H33         -3.2430    -0.9470     0.4210 h1         1 TEP       0.059367
     20 HN7          2.1070     0.0600    -2.6160 hn         1 TEP       0.378000
     21 H8           0.0450     0.1060    -4.1270 h5         1 TEP       0.065100
@<TRIPOS>BOND
     1     1     2 1   
     2     1    14 1   
     3     1    15 1   
     4     1    16 1   
     5     2     3 1   
     6     2     9 1   
     7     3     4 2   
     8     3     5 1   
     9     5     6 1   
    10     5     7 1   
    11     6    17 1   
    12     6    18 1   
    13     6    19 1   
    14     7     8 2   
    15     7    13 1   
    16     8     9 1   
    17     8    11 1   
    18     9    10 2   
    19    11    12 1   
    20    11    20 1   
    21    12    13 2   
    22    12    21 1   
@<TRIPOS>SUBSTRUCTURE
     1 TEP         1 TEMP              0 ****  ****    0 ROOT
