@<TRIPOS>MOLECULE
TEP
   21    22     1     0     0
SMALL
bcc


@<TRIPOS>ATOM
      1 C1           1.2530    -0.0190     2.7360 c3         1 TEP       0.085300
      2 N1           0.6470     0.0020     1.4090 n          1 TEP      -0.506400
      3 C2          -0.7450    -0.0290     1.3910 c          1 TEP       0.825500
      4 O2          -1.3790    -0.1400     2.4230 o          1 TEP      -0.626500
      5 N3          -1.3720     0.0790     0.1760 n          1 TEP      -0.424300
      6 C3          -2.8240     0.0190     0.1210 c3         1 TEP       0.101300
      7 C4          -0.6210     0.0760    -0.9640 cc         1 TEP       0.502200
      8 C5           0.7470     0.0460    -0.9180 cd         1 TEP      -0.367200
      9 C6           1.4900    -0.0010     0.2940 c          1 TEP       0.777100
     10 O6           2.7040    -0.0410     0.3860 o          1 TEP      -0.611500
     11 N7           1.1410     0.0400    -2.2310 na         1 TEP      -0.248900
     12 C8           0.0260     0.0740    -2.9660 cd         1 TEP       0.449400
     13 N9          -1.0720     0.0930    -2.2320 nc         1 TEP      -0.704000
     14 H11          1.1330    -0.9970     3.2040 h1         1 TEP       0.058033
     15 H12          2.3100     0.1980     2.6400 h1         1 TEP       0.058033
     16 H13          0.7940     0.7340     3.3690 h1         1 TEP       0.058033
     17 H31         -3.2530     0.6530     0.8910 h1         1 TEP       0.059367
     18 H32         -3.1460     0.3830    -0.8490 h1         1 TEP       0.059367
     19 H33         -3.1820    -1.0020     0.2530 h1         1 TEP       0.059367
     20 HN7          2.0880     0.0490    -2.5800 hn         1 TEP       0.327700
     21 H8           0.0480     0.0820    -4.0440 h5         1 TEP       0.065100
@<TRIPOS>BOND
     1     1     2 1   
     2     1    14 1   
     3     1    15 1   
     4     1    16 1   
     5     2     3 1   
     6     2     9 1   
     7     3     4 2   
     8     3     5 1   
     9     5     6 1   
    10     5     7 1   
    11     6    17 1   
    12     6    18 1   
    13     6    19 1   
    14     7     8 2   
    15     7    13 1   
    16     8     9 1   
    17     8    11 1   
    18     9    10 2   
    19    11    12 1   
    20    11    20 1   
    21    12    13 2   
    22    12    21 1   
@<TRIPOS>SUBSTRUCTURE
     1 TEP         1 TEMP              0 ****  ****    0 ROOT
