@<TRIPOS>MOLECULE
TEQ
   47    51     1     0     0
SMALL
abcg2


@<TRIPOS>ATOM
      1 N1          -8.3020    31.0220    18.9450 nu         1 TEQ      -0.902200
      2 N3          -7.9870    30.1850    21.1620 na         1 TEQ       0.100800
      3 C4         -10.3270    29.2010    22.5720 ca         1 TEQ      -0.040000
      4 C5          -9.3850    28.3570    22.0000 ca         1 TEQ      -0.144300
      5 C6          -8.4910    28.8530    20.8920 c6         1 TEQ       0.159600
      6 C7          -9.2620    28.9020    19.5730 c6         1 TEQ      -0.103400
      7 C8          -8.4950    29.6560    18.4850 c6         1 TEQ       0.250800
      8 C10         -7.2490    32.1990    20.9100 cc         1 TEQ      -0.020000
      9 C13        -10.0650    30.6770    16.8120 ca         1 TEQ      -0.104000
     10 C15        -10.7770    29.5230    14.8170 ca         1 TEQ      -0.093000
     11 C17         -9.2600    26.2920    14.6450 ca         1 TEQ       0.618900
     12 C20         -9.2140    28.4670    16.3620 ca         1 TEQ      -0.118000
     13 F           -6.9320    33.3950    20.3930 f          1 TEQ      -0.159000
     14 C11         -7.0430    31.7560    22.2160 cc         1 TEQ       0.247900
     15 N2          -7.4890    30.5230    22.3600 nd         1 TEQ      -0.504800
     16 C3         -11.1830    28.7120    23.5440 ca         1 TEQ      -0.169000
     17 C2         -11.0590    27.3810    23.9050 ca         1 TEQ       0.351900
     18 N          -10.1690    26.5620    23.3630 nb         1 TEQ      -0.677000
     19 C1          -9.3420    27.0250    22.4260 ca         1 TEQ       0.372300
     20 C           -8.3670    26.0380    21.8500 c3         1 TEQ      -0.151400
     21 C9          -7.8550    31.1590    20.2370 cd         1 TEQ       0.189000
     22 C12         -9.2660    29.6220    17.1860 ca         1 TEQ      -0.066300
     23 C19         -8.4350    27.3130    16.6540 ca         1 TEQ      -0.041000
     24 C18         -8.4540    26.2410    15.8230 ca         1 TEQ      -0.204000
     25 N5          -9.3140    25.2100    13.8300 nv         1 TEQ      -1.067900
     26 N4          -9.9820    27.3430    14.3380 nb         1 TEQ      -0.758000
     27 C16         -9.9780    28.4130    15.1680 ca         1 TEQ       0.325000
     28 C14        -10.8150    30.6270    15.6240 ca         1 TEQ      -0.094000
     29 H1          -7.8060    31.6090    18.2890 hn         1 TEQ       0.479000
     30 H3          -7.6330    28.1850    20.7800 h1         1 TEQ       0.070700
     31 H4         -10.2290    29.3890    19.7210 hc         1 TEQ       0.076700
     32 H5          -9.4640    27.8790    19.2550 hc         1 TEQ       0.076700
     33 H6          -7.5210    29.1680    18.3420 h1         1 TEQ       0.040700
     34 H7         -10.1210    31.5580    17.4370 ha         1 TEQ       0.132000
     35 H8         -11.3540    29.4770    13.9020 ha         1 TEQ       0.132000
     36 H9          -6.5940    32.2870    23.0410 h4         1 TEQ       0.050100
     37 H10        -11.9260    29.3450    24.0100 ha         1 TEQ       0.127000
     38 H11        -11.7050    26.9560    24.6650 h4         1 TEQ       0.020100
     39 H12         -8.5320    25.0570    22.2890 hc         1 TEQ       0.052367
     40 H13         -8.4700    25.9460    20.7670 hc         1 TEQ       0.052367
     41 H14         -7.3350    26.3290    22.0510 hc         1 TEQ       0.052367
     42 H15         -7.8180    27.2700    17.5410 ha         1 TEQ       0.112000
     43 H16         -7.8670    25.3580    16.0420 ha         1 TEQ       0.121000
     44 H17         -9.7120    25.3350    12.9150 hn         1 TEQ       0.481000
     45 H18         -8.5910    24.5140    13.8960 hn         1 TEQ       0.481000
     46 H19        -11.4310    31.4740    15.3530 ha         1 TEQ       0.118000
     47 H2         -10.3960    30.2360    22.2600 ha         1 TEQ       0.129000
@<TRIPOS>BOND
     1     1     7 1   
     2     1    21 1   
     3     1    29 1   
     4     2     5 1   
     5     2    15 1   
     6     2    21 1   
     7     3     4 ar  
     8     3    16 ar  
     9     3    47 1   
    10     4     5 1   
    11     4    19 ar  
    12     5     6 1   
    13     5    30 1   
    14     6     7 1   
    15     6    31 1   
    16     6    32 1   
    17     7    22 1   
    18     7    33 1   
    19     8    13 1   
    20     8    14 1   
    21     8    21 2   
    22     9    22 ar  
    23     9    28 ar  
    24     9    34 1   
    25    10    27 ar  
    26    10    28 ar  
    27    10    35 1   
    28    11    24 ar  
    29    11    25 1   
    30    11    26 ar  
    31    12    22 ar  
    32    12    23 ar  
    33    12    27 ar  
    34    14    15 2   
    35    14    36 1   
    36    16    17 ar  
    37    16    37 1   
    38    17    18 ar  
    39    17    38 1   
    40    18    19 ar  
    41    19    20 1   
    42    20    39 1   
    43    20    40 1   
    44    20    41 1   
    45    23    24 ar  
    46    23    42 1   
    47    24    43 1   
    48    25    44 1   
    49    25    45 1   
    50    26    27 ar  
    51    28    46 1   
@<TRIPOS>SUBSTRUCTURE
     1 TEQ         1 TEMP              0 ****  ****    0 ROOT
