@<TRIPOS>MOLECULE
TEQ
   47    51     1     0     0
SMALL
No Charge or Current Charge


@<TRIPOS>ATOM
      1 N1          -8.0540    30.8150    18.8690 nu         1 TEQ      -0.902200
      2 N3          -7.9680    30.1960    21.2270 na         1 TEQ       0.100800
      3 C4         -10.4510    29.2280    22.6470 ca         1 TEQ      -0.040000
      4 C5          -9.4500    28.3690    22.1470 ca         1 TEQ      -0.144300
      5 C6          -8.5330    28.8420    21.0000 c6         1 TEQ       0.159600
      6 C7          -9.2920    28.8180    19.6370 c6         1 TEQ      -0.103400
      7 C8          -8.4750    29.4550    18.4770 c6         1 TEQ       0.250800
      8 C10         -7.1800    32.1760    20.7680 cc         1 TEQ      -0.020000
      9 C13        -10.1310    30.5390    16.8680 ca         1 TEQ      -0.104000
     10 C15        -10.7870    29.5280    14.7650 ca         1 TEQ      -0.093000
     11 C17         -9.1960    26.3560    14.3680 ca         1 TEQ       0.618900
     12 C20         -9.2200    28.3630    16.2320 ca         1 TEQ      -0.118000
     13 F           -6.7730    33.3150    20.1780 f          1 TEQ      -0.159000
     14 C11         -7.0710    31.8780    22.1390 cc         1 TEQ       0.247900
     15 N2          -7.5270    30.6760    22.4650 nd         1 TEQ      -0.504800
     16 C3         -11.2770    28.7690    23.6830 ca         1 TEQ      -0.169000
     17 C2         -11.0860    27.4750    24.1860 ca         1 TEQ       0.351900
     18 N          -10.1380    26.6370    23.7120 nb         1 TEQ      -0.677000
     19 C1          -9.3370    27.0730    22.7120 ca         1 TEQ       0.372300
     20 C           -8.3080    26.0600    22.2310 c3         1 TEQ      -0.151400
     21 C9          -7.7450    31.0930    20.1820 cd         1 TEQ       0.189000
     22 C12         -9.2800    29.4480    17.1560 ca         1 TEQ      -0.066300
     23 C19         -8.4350    27.2090    16.4760 ca         1 TEQ      -0.041000
     24 C18         -8.4260    26.1890    15.5160 ca         1 TEQ      -0.204000
     25 N5          -9.2630    25.4630    13.3790 nv         1 TEQ      -1.067900
     26 N4          -9.9470    27.4110    14.1060 nb         1 TEQ      -0.758000
     27 C16         -9.9750    28.4100    15.0210 ca         1 TEQ       0.325000
     28 C14        -10.8730    30.5820    15.6820 ca         1 TEQ      -0.094000
     29 H1          -7.7060    31.4660    18.1610 hn         1 TEQ       0.479000
     30 H3          -7.6690    28.1720    20.9120 h1         1 TEQ       0.070700
     31 H4         -10.2420    29.3600    19.7380 hc         1 TEQ       0.076700
     32 H5          -9.5560    27.7840    19.3810 hc         1 TEQ       0.076700
     33 H6          -7.5550    28.8720    18.3420 h1         1 TEQ       0.040700
     34 H7         -10.2240    31.3660    17.5700 ha         1 TEQ       0.132000
     35 H8         -11.3650    29.5680    13.8460 ha         1 TEQ       0.132000
     36 H9          -6.6580    32.5090    22.9140 h4         1 TEQ       0.050100
     37 H10        -12.0560    29.4040    24.0950 ha         1 TEQ       0.127000
     38 H11        -11.7140    27.0940    24.9910 h4         1 TEQ       0.020100
     39 H12         -8.4260    25.0880    22.7250 hc         1 TEQ       0.052367
     40 H13         -8.4010    25.8890    21.1520 hc         1 TEQ       0.052367
     41 H14         -7.2900    26.4100    22.4360 hc         1 TEQ       0.052367
     42 H15         -7.8480    27.0760    17.3800 ha         1 TEQ       0.112000
     43 H16         -7.8380    25.2890    15.6640 ha         1 TEQ       0.121000
     44 H17         -9.6630    25.8240    12.5220 hn         1 TEQ       0.481000
     45 H18         -8.4860    24.8190    13.2770 hn         1 TEQ       0.481000
     46 H19        -11.5180    31.4330    15.4730 ha         1 TEQ       0.118000
     47 H2         -10.5870    30.2290    22.2420 ha         1 TEQ       0.129000
@<TRIPOS>BOND
     1     1     7 1   
     2     1    21 1   
     3     1    29 1   
     4     2     5 1   
     5     2    15 1   
     6     2    21 1   
     7     3     4 ar  
     8     3    16 ar  
     9     3    47 1   
    10     4     5 1   
    11     4    19 ar  
    12     5     6 1   
    13     5    30 1   
    14     6     7 1   
    15     6    31 1   
    16     6    32 1   
    17     7    22 1   
    18     7    33 1   
    19     8    13 1   
    20     8    14 1   
    21     8    21 2   
    22     9    22 ar  
    23     9    28 ar  
    24     9    34 1   
    25    10    27 ar  
    26    10    28 ar  
    27    10    35 1   
    28    11    24 ar  
    29    11    25 1   
    30    11    26 ar  
    31    12    22 ar  
    32    12    23 ar  
    33    12    27 ar  
    34    14    15 2   
    35    14    36 1   
    36    16    17 ar  
    37    16    37 1   
    38    17    18 ar  
    39    17    38 1   
    40    18    19 ar  
    41    19    20 1   
    42    20    39 1   
    43    20    40 1   
    44    20    41 1   
    45    23    24 ar  
    46    23    42 1   
    47    24    43 1   
    48    25    44 1   
    49    25    45 1   
    50    26    27 ar  
    51    28    46 1   
@<TRIPOS>SUBSTRUCTURE
     1 TEQ         1 TEMP              0 ****  ****    0 ROOT
