@<TRIPOS>MOLECULE
TER
   40    39     1     0     0
SMALL
No Charge or Current Charge


@<TRIPOS>ATOM
      1 N1           0.7220    -0.0950    -8.0230 n8         1 TER      -0.992200
      2 C2          -0.2510    -0.0540    -6.9150 c3         1 TER       0.149800
      3 C3           0.4490    -0.0340    -5.5420 c3         1 TER      -0.082400
      4 C4          -0.5540     0.0040    -4.3730 c3         1 TER       0.159800
      5 N5           0.1600     0.0140    -3.0840 n7         1 TER      -0.856400
      6 C6          -0.7050     0.0310    -1.8900 c3         1 TER       0.160800
      7 C7           0.1490     0.0220    -0.6080 c3         1 TER      -0.083400
      8 C8          -0.7120     0.0320     0.6690 c3         1 TER       0.160800
      9 N9           0.1460     0.0160     1.8680 n7         1 TER      -0.859400
     10 C10         -0.5740     0.0080     3.1530 c3         1 TER       0.160800
     11 C11          0.4270    -0.0230     4.3250 c3         1 TER      -0.079400
     12 C12         -0.2650    -0.0380     5.7070 c3         1 TER      -0.078400
     13 C13          0.7370    -0.0730     6.8790 c3         1 TER       0.149800
     14 N14          0.0470    -0.0890     8.1810 n8         1 TER      -0.995200
     15 HN11         1.2750     0.7710    -8.0150 hn         1 TER       0.391000
     16 HN12         0.2150    -0.0480    -8.9160 hn         1 TER       0.391000
     17 H21         -0.9000    -0.9370    -6.9860 h1         1 TER       0.025700
     18 H22         -0.8730     0.8450    -7.0270 h1         1 TER       0.025700
     19 H31          1.1080     0.8410    -5.4830 hc         1 TER       0.053200
     20 H32          1.0800    -0.9260    -5.4460 hc         1 TER       0.053200
     21 H41         -1.2110    -0.8740    -4.4370 h1         1 TER       0.026700
     22 H42         -1.1820     0.9010    -4.4680 h1         1 TER       0.026700
     23 HN5          0.7580     0.8490    -3.0560 hn         1 TER       0.403000
     24 H61         -1.3650    -0.8470    -1.8860 h1         1 TER       0.027200
     25 H62         -1.3400     0.9280    -1.8920 h1         1 TER       0.027200
     26 H71          0.8110     0.8960    -0.6060 hc         1 TER       0.052700
     27 H72          0.7860    -0.8710    -0.6060 hc         1 TER       0.052700
     28 H81         -1.3720    -0.8460     0.6630 h1         1 TER       0.027700
     29 H82         -1.3470     0.9290     0.6670 h1         1 TER       0.027700
     30 HN9          0.7440     0.8510     1.8430 hn         1 TER       0.403000
     31 H101        -1.2290    -0.8720     3.2170 h1         1 TER       0.028700
     32 H102        -1.2050     0.9040     3.2430 h1         1 TER       0.028700
     33 H111         1.0860     0.8520     4.2630 hc         1 TER       0.044700
     34 H112         1.0620    -0.9130     4.2320 hc         1 TER       0.044700
     35 H121        -0.9240    -0.9130     5.7690 hc         1 TER       0.045700
     36 H122        -0.9010     0.8520     5.7990 hc         1 TER       0.045700
     37 H131         1.3890     0.8110     6.8360 h1         1 TER       0.027200
     38 H132         1.3650    -0.9720     6.8020 h1         1 TER       0.027200
     39 HN41         0.7480    -0.0510     8.9310 hn         1 TER       0.391000
     40 HN42        -0.4730     0.7890     8.2940 hn         1 TER       0.391000
@<TRIPOS>BOND
     1     1     2 1   
     2     1    15 1   
     3     1    16 1   
     4     2     3 1   
     5     2    17 1   
     6     2    18 1   
     7     3     4 1   
     8     3    19 1   
     9     3    20 1   
    10     4     5 1   
    11     4    21 1   
    12     4    22 1   
    13     5     6 1   
    14     5    23 1   
    15     6     7 1   
    16     6    24 1   
    17     6    25 1   
    18     7     8 1   
    19     7    26 1   
    20     7    27 1   
    21     8     9 1   
    22     8    28 1   
    23     8    29 1   
    24     9    10 1   
    25     9    30 1   
    26    10    11 1   
    27    10    31 1   
    28    10    32 1   
    29    11    12 1   
    30    11    33 1   
    31    11    34 1   
    32    12    13 1   
    33    12    35 1   
    34    12    36 1   
    35    13    14 1   
    36    13    37 1   
    37    13    38 1   
    38    14    39 1   
    39    14    40 1   
@<TRIPOS>SUBSTRUCTURE
     1 TER         1 TEMP              0 ****  ****    0 ROOT
