@<TRIPOS>MOLECULE
TER
   40    39     1     0     0
SMALL
bcc


@<TRIPOS>ATOM
      1 N1           0.4830     0.0610    -7.9620 n8         1 TER      -0.881800
      2 C2          -0.4000     0.0560    -6.8030 c3         1 TER       0.149800
      3 C3           0.4010    -0.0010    -5.5120 c3         1 TER      -0.082400
      4 C4          -0.4890    -0.0020    -4.2790 c3         1 TER       0.159800
      5 N5           0.2920    -0.0680    -3.0590 n7         1 TER      -0.801200
      6 C6          -0.5270    -0.0380    -1.8630 c3         1 TER       0.160800
      7 C7           0.3250    -0.0890    -0.6040 c3         1 TER      -0.083400
      8 C8          -0.5170    -0.0530     0.6620 c3         1 TER       0.160800
      9 N9           0.3130    -0.1050     1.8500 n7         1 TER      -0.804200
     10 C10         -0.4540    -0.0330     3.0800 c3         1 TER       0.160800
     11 C11          0.4500    -0.0590     4.3030 c3         1 TER      -0.079400
     12 C12         -0.3290     0.0270     5.6080 c3         1 TER      -0.078400
     13 C13          0.5740    -0.0020     6.8320 c3         1 TER       0.149800
     14 N14         -0.2060     0.0910     8.0580 n8         1 TER      -0.884800
     15 HN11         0.9950     0.9350    -7.9820 hn         1 TER       0.335800
     16 HN12        -0.0730     0.0550    -8.8080 hn         1 TER       0.335800
     17 H21         -1.0390    -0.8290    -6.8650 h1         1 TER       0.025700
     18 H22         -1.0770     0.9210    -6.7670 h1         1 TER       0.025700
     19 H31          1.0770     0.8620    -5.4690 hc         1 TER       0.053200
     20 H32          1.0300    -0.8950    -5.5120 hc         1 TER       0.053200
     21 H41         -1.1470    -0.8770    -4.3110 h1         1 TER       0.026700
     22 H42         -1.1530     0.8780    -4.3060 h1         1 TER       0.026700
     23 HN5          0.9240     0.7260    -3.0370 hn         1 TER       0.347800
     24 H61         -1.1930    -0.9080    -1.8830 h1         1 TER       0.027200
     25 H62         -1.1840     0.8470    -1.8250 h1         1 TER       0.027200
     26 H71          1.0160     0.7620    -0.6020 hc         1 TER       0.052700
     27 H72          0.9370    -0.9950    -0.6120 hc         1 TER       0.052700
     28 H81         -1.1880    -0.9190     0.6750 h1         1 TER       0.027700
     29 H82         -1.1680     0.8370     0.6430 h1         1 TER       0.027700
     30 HN9          0.9580     0.6770     1.8270 hn         1 TER       0.347800
     31 H101        -1.1300    -0.8940     3.1130 h1         1 TER       0.028700
     32 H102        -1.0970     0.8620     3.1230 h1         1 TER       0.028700
     33 H111         1.1580     0.7750     4.2450 hc         1 TER       0.044700
     34 H112         1.0490    -0.9750     4.2870 hc         1 TER       0.044700
     35 H121        -1.0440    -0.7990     5.6720 hc         1 TER       0.045700
     36 H122        -0.9200     0.9500     5.6190 hc         1 TER       0.045700
     37 H131         1.3300     0.7900     6.7320 h1         1 TER       0.027200
     38 H132         1.1230    -0.9480     6.8460 h1         1 TER       0.027200
     39 HN41         0.4130     0.0370     8.8570 hn         1 TER       0.335800
     40 HN42        -0.6330     1.0080     8.1090 hn         1 TER       0.335800
@<TRIPOS>BOND
     1     1     2 1   
     2     1    15 1   
     3     1    16 1   
     4     2     3 1   
     5     2    17 1   
     6     2    18 1   
     7     3     4 1   
     8     3    19 1   
     9     3    20 1   
    10     4     5 1   
    11     4    21 1   
    12     4    22 1   
    13     5     6 1   
    14     5    23 1   
    15     6     7 1   
    16     6    24 1   
    17     6    25 1   
    18     7     8 1   
    19     7    26 1   
    20     7    27 1   
    21     8     9 1   
    22     8    28 1   
    23     8    29 1   
    24     9    10 1   
    25     9    30 1   
    26    10    11 1   
    27    10    31 1   
    28    10    32 1   
    29    11    12 1   
    30    11    33 1   
    31    11    34 1   
    32    12    13 1   
    33    12    35 1   
    34    12    36 1   
    35    13    14 1   
    36    13    37 1   
    37    13    38 1   
    38    14    39 1   
    39    14    40 1   
@<TRIPOS>SUBSTRUCTURE
     1 TER         1 TEMP              0 ****  ****    0 ROOT
