@<TRIPOS>MOLECULE
TES
   49    52     1     0     0
SMALL
No Charge or Current Charge


@<TRIPOS>ATOM
      1 C1           1.5820     0.3130    -2.7240 c6         1 TES      -0.064400
      2 C2           1.4330    -1.0870    -3.3540 c6         1 TES      -0.180400
      3 C3           0.1260    -1.1640    -4.1380 c          1 TES       0.575300
      4 O3           0.0460    -1.7090    -5.2300 o          1 TES      -0.529100
      5 C4          -1.0480    -0.5780    -3.4510 ce         1 TES      -0.319200
      6 C5          -0.9530     0.2760    -2.4020 c2         1 TES      -0.033400
      7 C6          -2.1960     0.6750    -1.6210 c6         1 TES      -0.051200
      8 C7          -2.1430     0.0100    -0.2270 c6         1 TES      -0.069400
      9 C8          -0.8180     0.3390     0.5230 c6         1 TES      -0.045700
     10 C9           0.4540     0.0010    -0.3540 c6         1 TES      -0.045700
     11 C10          0.3920     0.7080    -1.7710 c6         1 TES      -0.012800
     12 C11          1.7780     0.2680     0.4490 c6         1 TES      -0.071400
     13 C12          1.7970    -0.4520     1.8300 c6         1 TES      -0.060400
     14 C13          0.5550    -0.0880     2.6920 c5         1 TES      -0.039000
     15 C14         -0.7280    -0.4270     1.8740 c5         1 TES      -0.067700
     16 C15         -1.8540    -0.2200     2.9270 c5         1 TES      -0.065400
     17 C16         -1.2080    -0.7640     4.2500 c5         1 TES      -0.116400
     18 C17          0.2840    -1.0710     3.8810 c5         1 TES       0.171300
     19 O17          1.1620    -0.8810     4.9900 oh         1 TES      -0.651000
     20 C18          0.6890     1.4090     3.1540 c3         1 TES      -0.072100
     21 C19          0.4420     2.2720    -1.6510 c3         1 TES      -0.082100
     22 H11          2.5530     0.4030    -2.2240 hc         1 TES       0.049200
     23 H12          1.6320     1.0320    -3.5550 hc         1 TES       0.049200
     24 H21          1.3580    -1.8070    -2.5300 hc         1 TES       0.069700
     25 H22          2.2800    -1.3700    -3.9920 hc         1 TES       0.069700
     26 H4          -2.0150    -0.8680    -3.8580 ha         1 TES       0.195000
     27 H61         -3.1050     0.3530    -2.1460 hc         1 TES       0.054200
     28 H62         -2.2740     1.7660    -1.5290 hc         1 TES       0.054200
     29 H71         -2.2410    -1.0780    -0.3450 hc         1 TES       0.045200
     30 H72         -3.0080     0.3380     0.3650 hc         1 TES       0.045200
     31 H8          -0.8310     1.4110     0.7520 hc         1 TES       0.053700
     32 H9           0.4230    -1.0820    -0.5390 hc         1 TES       0.047700
     33 H111         1.9360     1.3450     0.5860 hc         1 TES       0.042200
     34 H112         2.6460    -0.0920    -0.1160 hc         1 TES       0.042200
     35 H121         2.7220    -0.2080     2.3700 hc         1 TES       0.045700
     36 H122         1.8240    -1.5380     1.6620 hc         1 TES       0.045700
     37 H14         -0.7180    -1.4850     1.5780 hc         1 TES       0.044700
     38 H151        -2.1360     0.8350     3.0200 hc         1 TES       0.044700
     39 H152        -2.7650    -0.7690     2.6620 hc         1 TES       0.044700
     40 H161        -1.2890    -0.0200     5.0510 hc         1 TES       0.047200
     41 H162        -1.7170    -1.6650     4.6080 hc         1 TES       0.047200
     42 H17          0.3650    -2.1100     3.5300 h1         1 TES       0.027700
     43 HO7          0.8730    -1.5080     5.6880 ho         1 TES       0.442000
     44 H181         0.6790     2.1120     2.3140 hc         1 TES       0.036033
     45 H182        -0.1110     1.7210     3.8330 hc         1 TES       0.036033
     46 H183         1.6320     1.5690     3.6900 hc         1 TES       0.036033
     47 H191         0.2420     2.7450    -2.6200 hc         1 TES       0.038367
     48 H192        -0.2860     2.6840    -0.9460 hc         1 TES       0.038367
     49 H193         1.4300     2.6170    -1.3250 hc         1 TES       0.038367
@<TRIPOS>BOND
     1     1     2 1   
     2     1    11 1   
     3     1    22 1   
     4     1    23 1   
     5     2     3 1   
     6     2    24 1   
     7     2    25 1   
     8     3     4 2   
     9     3     5 1   
    10     5     6 2   
    11     5    26 1   
    12     6     7 1   
    13     6    11 1   
    14     7     8 1   
    15     7    27 1   
    16     7    28 1   
    17     8     9 1   
    18     8    29 1   
    19     8    30 1   
    20     9    10 1   
    21     9    15 1   
    22     9    31 1   
    23    10    11 1   
    24    10    12 1   
    25    10    32 1   
    26    11    21 1   
    27    12    13 1   
    28    12    33 1   
    29    12    34 1   
    30    13    14 1   
    31    13    35 1   
    32    13    36 1   
    33    14    15 1   
    34    14    18 1   
    35    14    20 1   
    36    15    16 1   
    37    15    37 1   
    38    16    17 1   
    39    16    38 1   
    40    16    39 1   
    41    17    18 1   
    42    17    40 1   
    43    17    41 1   
    44    18    19 1   
    45    18    42 1   
    46    19    43 1   
    47    20    44 1   
    48    20    45 1   
    49    20    46 1   
    50    21    47 1   
    51    21    48 1   
    52    21    49 1   
@<TRIPOS>SUBSTRUCTURE
     1 TES         1 TEMP              0 ****  ****    0 ROOT
