@<TRIPOS>MOLECULE
TES
   49    52     1     0     0
SMALL
bcc


@<TRIPOS>ATOM
      1 C1           1.5420     0.2870    -2.6630 c6         1 TES      -0.064400
      2 C2           1.3890    -1.1130    -3.2330 c6         1 TES      -0.180400
      3 C3           0.0880    -1.2400    -3.9770 c          1 TES       0.575300
      4 O3          -0.0440    -1.9560    -4.9550 o          1 TES      -0.529100
      5 C4          -1.0400    -0.5140    -3.3970 ce         1 TES      -0.269200
      6 C5          -0.9290     0.3160    -2.3460 c2         1 TES      -0.033400
      7 C6          -2.1440     0.7610    -1.6010 c6         1 TES      -0.051200
      8 C7          -2.1030     0.0850    -0.2250 c6         1 TES      -0.069400
      9 C8          -0.8000     0.3700     0.5130 c6         1 TES      -0.045700
     10 C9           0.4400     0.0200    -0.3380 c6         1 TES      -0.045700
     11 C10          0.3960     0.7130    -1.7340 c6         1 TES      -0.012800
     12 C11          1.7360     0.2860     0.4350 c6         1 TES      -0.071400
     13 C12          1.7750    -0.4290     1.7890 c6         1 TES      -0.060400
     14 C13          0.5510    -0.0950     2.6330 c5         1 TES      -0.039000
     15 C14         -0.7090    -0.4100     1.8150 c5         1 TES      -0.067700
     16 C15         -1.8430    -0.3150     2.8380 c5         1 TES      -0.065400
     17 C16         -1.1980    -0.8340     4.1440 c5         1 TES      -0.116400
     18 C17          0.3040    -1.0210     3.8260 c5         1 TES       0.148100
     19 O17          1.1730    -0.7460     4.8980 oh         1 TES      -0.588800
     20 C18          0.6050     1.3620     3.1050 c3         1 TES      -0.072100
     21 C19          0.4790     2.2430    -1.6050 c3         1 TES      -0.082100
     22 H11          2.5010     0.3800    -2.1530 hc         1 TES       0.049200
     23 H12          1.5790     0.9960    -3.4960 hc         1 TES       0.049200
     24 H21          1.3830    -1.8600    -2.4300 hc         1 TES       0.069700
     25 H22          2.2210    -1.3650    -3.8920 hc         1 TES       0.069700
     26 H4          -2.0230    -0.7440    -3.7970 ha         1 TES       0.145000
     27 H61         -3.0530     0.4790    -2.1350 hc         1 TES       0.054200
     28 H62         -2.1630     1.8470    -1.4780 hc         1 TES       0.054200
     29 H71         -2.2240    -0.9960    -0.3580 hc         1 TES       0.045200
     30 H72         -2.9540     0.4270     0.3690 hc         1 TES       0.045200
     31 H8          -0.7800     1.4420     0.7430 hc         1 TES       0.053700
     32 H9           0.3890    -1.0640    -0.5220 hc         1 TES       0.047700
     33 H111         1.8670     1.3620     0.5810 hc         1 TES       0.042200
     34 H112         2.5950    -0.0480    -0.1510 hc         1 TES       0.042200
     35 H121         2.6980    -0.1650     2.3120 hc         1 TES       0.045700
     36 H122         1.8110    -1.5120     1.6220 hc         1 TES       0.045700
     37 H14         -0.6320    -1.4710     1.5290 hc         1 TES       0.044700
     38 H151        -2.1790     0.7190     2.9520 hc         1 TES       0.044700
     39 H152        -2.7160    -0.8970     2.5410 hc         1 TES       0.044700
     40 H161        -1.3170    -0.1150     4.9570 hc         1 TES       0.047200
     41 H162        -1.6480    -1.7690     4.4790 hc         1 TES       0.047200
     42 H17          0.4610    -2.0530     3.4750 h1         1 TES       0.027700
     43 HO7          0.9750    -1.3610     5.6110 ho         1 TES       0.403000
     44 H181         0.5550     2.0660     2.2760 hc         1 TES       0.036033
     45 H182        -0.2090     1.6120     3.7870 hc         1 TES       0.036033
     46 H183         1.5390     1.5570     3.6340 hc         1 TES       0.036033
     47 H191         0.1890     2.7230    -2.5410 hc         1 TES       0.038367
     48 H192        -0.1480     2.6510    -0.8150 hc         1 TES       0.038367
     49 H193         1.5060     2.5460    -1.3920 hc         1 TES       0.038367
@<TRIPOS>BOND
     1     1     2 1   
     2     1    11 1   
     3     1    22 1   
     4     1    23 1   
     5     2     3 1   
     6     2    24 1   
     7     2    25 1   
     8     3     4 2   
     9     3     5 1   
    10     5     6 2   
    11     5    26 1   
    12     6     7 1   
    13     6    11 1   
    14     7     8 1   
    15     7    27 1   
    16     7    28 1   
    17     8     9 1   
    18     8    29 1   
    19     8    30 1   
    20     9    10 1   
    21     9    15 1   
    22     9    31 1   
    23    10    11 1   
    24    10    12 1   
    25    10    32 1   
    26    11    21 1   
    27    12    13 1   
    28    12    33 1   
    29    12    34 1   
    30    13    14 1   
    31    13    35 1   
    32    13    36 1   
    33    14    15 1   
    34    14    18 1   
    35    14    20 1   
    36    15    16 1   
    37    15    37 1   
    38    16    17 1   
    39    16    38 1   
    40    16    39 1   
    41    17    18 1   
    42    17    40 1   
    43    17    41 1   
    44    18    19 1   
    45    18    42 1   
    46    19    43 1   
    47    20    44 1   
    48    20    45 1   
    49    20    46 1   
    50    21    47 1   
    51    21    48 1   
    52    21    49 1   
@<TRIPOS>SUBSTRUCTURE
     1 TES         1 TEMP              0 ****  ****    0 ROOT
