@<TRIPOS>MOLECULE
TET
   76    78     1     0     0
SMALL
No Charge or Current Charge


@<TRIPOS>ATOM
      1 C1          47.7320    23.5620    35.8890 c          1 TET       0.596200
      2 N1          47.9920    24.5420    36.7880 ns         1 TET      -0.481500
      3 C3          47.8390    24.5060    38.1410 c          1 TET       0.620000
      4 N2          47.3560    23.2990    38.6800 n          1 TET      -0.277000
      5 C5          47.0510    22.2130    37.8550 cc         1 TET       0.103600
      6 C6          47.2330    22.3340    36.4950 cd         1 TET      -0.438200
      7 O1          47.9070    23.7080    34.6930 o          1 TET      -0.654000
      8 O2          48.1220    25.4850    38.8130 o          1 TET      -0.596000
      9 C9          45.6070    22.9190    40.4460 c5         1 TET       0.214300
     10 C2          47.1130    23.2300    40.1480 c5         1 TET       0.299700
     11 O3          47.8670    22.1560    40.7480 os         1 TET      -0.505000
     12 C4          47.0800    21.6110    41.8510 c5         1 TET       0.119300
     13 C15         45.7810    22.5030    41.9490 c5         1 TET       0.109300
     14 C12         46.8180    20.0820    41.6530 c3         1 TET       0.244600
     15 O14         45.9970    23.6320    42.8270 oh         1 TET      -0.678000
     16 O4          46.6010    19.7760    40.2720 os         1 TET      -0.600400
     17 P1          46.1490    18.2830    39.8760 p5         1 TET       1.498800
     18 O5          46.8840    17.2780    40.7020 o          1 TET      -0.883500
     19 O6          46.3470    17.9770    38.4280 o          1 TET      -0.883500
     20 O7          44.6420    18.3340    40.3090 os         1 TET      -0.719800
     21 P2          43.6760    19.1890    39.4040 p5         1 TET       1.487800
     22 O8          42.9360    19.9680    40.5990 os         1 TET      -0.588400
     23 O9          42.7300    18.3230    38.6370 o          1 TET      -0.858000
     24 O10         44.3250    20.1940    38.5140 o          1 TET      -0.858000
     25 C10         41.7700    19.3720    41.1680 c6         1 TET       0.417300
     26 C18         40.9260    20.4360    41.9440 c6         1 TET       0.086700
     27 C13         41.6840    20.8990    43.2320 c6         1 TET       0.168300
     28 C20         42.1590    19.6610    44.0660 c6         1 TET       0.128300
     29 C16         42.9440    18.6560    43.1730 c6         1 TET       0.150300
     30 C17         43.3560    17.3440    43.9250 c3         1 TET       0.138600
     31 N3          40.6060    21.5570    41.0400 ns         1 TET      -0.435900
     32 O21         40.8410    21.7260    44.0970 os         1 TET      -0.476000
     33 O22         42.9460    20.0700    45.2020 oh         1 TET      -0.712000
     34 O23         42.1370    18.2820    42.0320 os         1 TET      -0.480000
     35 O24         42.2430    16.5180    44.3330 oh         1 TET      -0.716000
     36 O12         38.9590    20.5330    39.8600 o          1 TET      -0.749100
     37 C8          39.6110    22.7330    39.1300 c3         1 TET      -0.173100
     38 C11         41.0490    23.1760    44.2560 c3         1 TET       0.347000
     39 C19         42.5310    23.4500    44.6950 c3         1 TET       0.126600
     40 O13         40.6860    23.8070    42.9910 os         1 TET      -0.612400
     41 P3          41.6610    24.6100    42.0060 p5         1 TET       1.322900
     42 O15         40.8370    25.2540    40.9540 o          1 TET      -0.899500
     43 O16         42.5630    23.6100    41.3740 o          1 TET      -0.899500
     44 O17         42.4260    25.6580    42.7280 o          1 TET      -0.899500
     45 C14         40.1400    23.7580    45.4550 c          1 TET       0.754000
     46 O18         39.6850    22.9920    46.3040 o          1 TET      -0.764500
     47 O19         39.8240    24.9480    45.4560 o          1 TET      -0.764500
     48 F1          42.8650    22.7300    45.8000 f          1 TET      -0.334000
     49 HN1         48.3390    25.4080    36.4080 hn         1 TET       0.289500
     50 H5          46.7000    21.3260    38.3780 h4         1 TET       0.285000
     51 H6          47.0190    21.5260    35.8060 ha         1 TET       0.234000
     52 H2          47.3960    24.1850    40.6090 h2         1 TET       0.084700
     53 H4          47.6710    21.7130    42.7710 h1         1 TET       0.003700
     54 H15         44.9180    21.9100    42.2870 h1         1 TET       0.104700
     55 H121        47.6980    19.5370    42.0200 h1         1 TET      -0.003300
     56 H122        45.9590    19.7800    42.2650 h1         1 TET      -0.003300
     57 HO4         46.2230    23.2790    43.7160 ho         1 TET       0.463000
     58 H10         41.1290    18.9820    40.3610 h2         1 TET       0.074700
     59 H18         39.9820    19.9650    42.2530 h1         1 TET       0.051700
     60 H13         42.5750    21.4580    42.9150 h1         1 TET       0.105700
     61 H20         41.2560    19.1460    44.4250 h1         1 TET       0.037700
     62 H16         43.8660    19.1380    42.8190 h1         1 TET       0.081700
     63 H171        44.0130    16.7740    43.2540 h1         1 TET       0.032200
     64 H172        43.9620    17.6190    44.7990 h1         1 TET       0.032200
     65 HN3         41.1980    22.3900    41.0860 hn         1 TET       0.410500
     66 HO2         42.6240    20.9700    45.4560 ho         1 TET       0.461000
     67 H24         42.6220    15.6990    44.7240 ho         1 TET       0.445000
     68 H81         39.0410    22.5450    38.2130 hc         1 TET       0.047367
     69 H82         39.1500    23.5490    39.6960 hc         1 TET       0.047367
     70 H83         40.6210    23.1050    38.9260 hc         1 TET       0.047367
     71 H191        43.2440    23.2090    43.9000 h1         1 TET       0.060700
     72 H192        42.6450    24.5100    44.9540 h1         1 TET       0.060700
     73 O11         44.7130    24.0340    40.2200 oh         1 TET      -0.808000
     74 C7          39.6770    21.5100    40.0340 c          1 TET       0.613100
     75 HO1         43.8390    23.8330    40.7360 ho         1 TET       0.635000
     76 H9          45.2670    22.0470    39.8760 h1         1 TET       0.106700
@<TRIPOS>BOND
     1     1     2 1   
     2     1     6 1   
     3     1     7 2   
     4     2     3 1   
     5     2    49 1   
     6     3     4 1   
     7     3     8 2   
     8     4     5 1   
     9     4    10 1   
    10     5     6 2   
    11     5    50 1   
    12     6    51 1   
    13     9    10 1   
    14     9    13 1   
    15     9    73 1   
    16     9    76 1   
    17    10    11 1   
    18    10    52 1   
    19    11    12 1   
    20    12    13 1   
    21    12    14 1   
    22    12    53 1   
    23    13    15 1   
    24    13    54 1   
    25    14    16 1   
    26    14    55 1   
    27    14    56 1   
    28    15    57 1   
    29    16    17 1   
    30    17    18 1   
    31    17    19 1   
    32    17    20 1   
    33    20    21 1   
    34    21    22 1   
    35    21    23 1   
    36    21    24 1   
    37    22    25 1   
    38    25    26 1   
    39    25    34 1   
    40    25    58 1   
    41    26    27 1   
    42    26    31 1   
    43    26    59 1   
    44    27    28 1   
    45    27    32 1   
    46    27    60 1   
    47    28    29 1   
    48    28    33 1   
    49    28    61 1   
    50    29    30 1   
    51    29    34 1   
    52    29    62 1   
    53    30    35 1   
    54    30    63 1   
    55    30    64 1   
    56    31    65 1   
    57    31    74 1   
    58    32    38 1   
    59    33    66 1   
    60    35    67 1   
    61    36    74 2   
    62    37    68 1   
    63    37    69 1   
    64    37    70 1   
    65    37    74 1   
    66    38    39 1   
    67    38    40 1   
    68    38    45 1   
    69    39    48 1   
    70    39    71 1   
    71    39    72 1   
    72    40    41 1   
    73    41    42 1   
    74    41    43 1   
    75    41    44 1   
    76    45    46 1   
    77    45    47 1   
    78    73    75 1   
@<TRIPOS>SUBSTRUCTURE
     1 TET         1 TEMP              0 ****  ****    0 ROOT
