@<TRIPOS>MOLECULE
TET
   76    78     1     0     0
SMALL
bcc


@<TRIPOS>ATOM
      1 C1          47.9460    22.8880    36.1080 c          1 TET       0.738700
      2 N1          47.9670    24.0690    36.8400 ns         1 TET      -0.615500
      3 C3          47.7080    24.2480    38.1750 c          1 TET       0.829500
      4 N2          47.3940    23.0890    38.8550 n          1 TET      -0.344000
      5 C5          47.3430    21.8860    38.2120 cc         1 TET       0.153600
      6 C6          47.6000    21.7380    36.9010 cd         1 TET      -0.388200
      7 O1          48.2030    22.8960    34.9190 o          1 TET      -0.729500
      8 O2          47.7570    25.3430    38.6940 o          1 TET      -0.671500
      9 C9          45.6320    22.9040    40.6240 c5         1 TET       0.191100
     10 C2          47.1020    23.1480    40.2850 c5         1 TET       0.276500
     11 O3          47.8330    22.1470    40.9310 os         1 TET      -0.458600
     12 C4          47.0580    21.5510    41.9770 c5         1 TET       0.096100
     13 C15         45.7530    22.3600    42.0520 c5         1 TET       0.086100
     14 C12         46.8940    20.0640    41.7380 c3         1 TET       0.221400
     15 O14         45.8580    23.4520    42.9340 oh         1 TET      -0.555800
     16 O4          46.0430    19.8430    40.6390 os         1 TET      -0.577200
     17 P1          46.0280    18.4090    39.8240 p5         1 TET       1.498800
     18 O5          46.2910    17.2820    40.7750 o          1 TET      -0.883500
     19 O6          46.8450    18.5610    38.5790 o          1 TET      -0.883500
     20 O7          44.4350    18.3480    39.4480 os         1 TET      -0.719800
     21 P2          43.3730    19.4680    38.8800 p5         1 TET       1.487800
     22 O8          42.7990    20.1140    40.2910 os         1 TET      -0.565200
     23 O9          42.2800    18.6960    38.2140 o          1 TET      -0.858000
     24 O10         44.0840    20.5820    38.1840 o          1 TET      -0.858000
     25 C10         41.8100    19.4640    41.0350 c6         1 TET       0.370900
     26 C18         41.0110    20.5040    41.8340 c6         1 TET       0.086700
     27 C13         41.7780    21.0750    43.0380 c6         1 TET       0.145100
     28 C20         42.4230    19.9310    43.8190 c6         1 TET       0.105100
     29 C16         43.2010    19.0050    42.8790 c6         1 TET       0.127100
     30 C17         43.8670    17.8390    43.5760 c3         1 TET       0.115400
     31 N3          40.5630    21.5610    40.9690 ns         1 TET      -0.502900
     32 O21         40.8590    21.7410    43.8770 os         1 TET      -0.429600
     33 O22         43.3070    20.4740    44.7720 oh         1 TET      -0.589800
     34 O23         42.3430    18.4900    41.8770 os         1 TET      -0.433600
     35 O24         42.9070    17.0750    44.2680 oh         1 TET      -0.593800
     36 O12         38.5510    20.6550    40.4630 o          1 TET      -0.749100
     37 C8          39.0960    22.7870    39.5180 c3         1 TET      -0.173100
     38 C11         40.9380    23.1230    44.1460 c3         1 TET       0.300600
     39 C19         42.2220    23.4730    44.8930 c3         1 TET       0.107900
     40 O13         40.7370    23.8900    43.0020 os         1 TET      -0.589200
     41 P3          41.8110    24.7410    42.0030 p5         1 TET       1.322900
     42 O15         40.8530    25.5500    41.1520 o          1 TET      -0.899500
     43 O16         42.5220    23.6160    41.1880 o          1 TET      -0.899500
     44 O17         42.7560    25.5240    42.8910 o          1 TET      -0.899500
     45 C14         39.7100    23.4660    45.0680 c          1 TET       0.964600
     46 O18         38.8190    22.6140    45.2040 o          1 TET      -0.869800
     47 O19         39.7360    24.6180    45.5430 o          1 TET      -0.869800
     48 F1          42.1770    22.8610    46.1500 f          1 TET      -0.315300
     49 HN1         48.1970    24.9140    36.3320 hn         1 TET       0.289500
     50 H5          47.0870    21.0320    38.8180 h4         1 TET       0.235000
     51 H6          47.5470    20.7610    36.4460 ha         1 TET       0.184000
     52 H2          47.4020    24.1430    40.6230 h2         1 TET       0.084700
     53 H4          47.6140    21.6520    42.9170 h1         1 TET       0.003700
     54 H15         44.9060    21.7200    42.3240 h1         1 TET       0.104700
     55 H121        47.8850    19.6210    41.5880 h1         1 TET      -0.003300
     56 H122        46.4790    19.6190    42.6500 h1         1 TET      -0.003300
     57 HO4         45.9280    23.1090    43.8310 ho         1 TET       0.364000
     58 H10         41.1230    18.9330    40.3710 h2         1 TET       0.074700
     59 H18         40.1360    19.9750    42.2230 h1         1 TET       0.051700
     60 H13         42.5650    21.7420    42.6700 h1         1 TET       0.105700
     61 H20         41.6220    19.3580    44.3030 h1         1 TET       0.037700
     62 H16         44.0140    19.5860    42.4230 h1         1 TET       0.081700
     63 H171        44.3980    17.2480    42.8180 h1         1 TET       0.032200
     64 H172        44.6340    18.2430    44.2480 h1         1 TET       0.032200
     65 HN3         41.2070    22.3540    40.8680 hn         1 TET       0.410500
     66 HO2         43.2870    19.9310    45.5650 ho         1 TET       0.362000
     67 H24         43.3680    16.3890    44.7590 ho         1 TET       0.346000
     68 H81         38.0310    23.0090    39.5220 hc         1 TET       0.047367
     69 H82         39.6440    23.6670    39.8520 hc         1 TET       0.047367
     70 H83         39.3840    22.5810    38.4850 hc         1 TET       0.047367
     71 H191        43.1230    23.1300    44.3850 h1         1 TET       0.060700
     72 H192        42.2940    24.5440    45.0440 h1         1 TET       0.060700
     73 O11         44.9060    24.0640    40.4420 oh         1 TET      -0.685800
     74 C7          39.3680    21.5680    40.3680 c          1 TET       0.680100
     75 HO1         43.9480    23.8950    40.7240 ho         1 TET       0.536000
     76 H9          45.2610    22.0800    39.9990 h1         1 TET       0.106700
@<TRIPOS>BOND
     1     1     2 1   
     2     1     6 1   
     3     1     7 2   
     4     2     3 1   
     5     2    49 1   
     6     3     4 1   
     7     3     8 2   
     8     4     5 1   
     9     4    10 1   
    10     5     6 2   
    11     5    50 1   
    12     6    51 1   
    13     9    10 1   
    14     9    13 1   
    15     9    73 1   
    16     9    76 1   
    17    10    11 1   
    18    10    52 1   
    19    11    12 1   
    20    12    13 1   
    21    12    14 1   
    22    12    53 1   
    23    13    15 1   
    24    13    54 1   
    25    14    16 1   
    26    14    55 1   
    27    14    56 1   
    28    15    57 1   
    29    16    17 1   
    30    17    18 1   
    31    17    19 1   
    32    17    20 1   
    33    20    21 1   
    34    21    22 1   
    35    21    23 1   
    36    21    24 1   
    37    22    25 1   
    38    25    26 1   
    39    25    34 1   
    40    25    58 1   
    41    26    27 1   
    42    26    31 1   
    43    26    59 1   
    44    27    28 1   
    45    27    32 1   
    46    27    60 1   
    47    28    29 1   
    48    28    33 1   
    49    28    61 1   
    50    29    30 1   
    51    29    34 1   
    52    29    62 1   
    53    30    35 1   
    54    30    63 1   
    55    30    64 1   
    56    31    65 1   
    57    31    74 1   
    58    32    38 1   
    59    33    66 1   
    60    35    67 1   
    61    36    74 2   
    62    37    68 1   
    63    37    69 1   
    64    37    70 1   
    65    37    74 1   
    66    38    39 1   
    67    38    40 1   
    68    38    45 1   
    69    39    48 1   
    70    39    71 1   
    71    39    72 1   
    72    40    41 1   
    73    41    42 1   
    74    41    43 1   
    75    41    44 1   
    76    45    46 1   
    77    45    47 1   
    78    73    75 1   
@<TRIPOS>SUBSTRUCTURE
     1 TET         1 TEMP              0 ****  ****    0 ROOT
