@<TRIPOS>MOLECULE
TEU
   45    45     1     0     0
SMALL
abcg2


@<TRIPOS>ATOM
      1 O1           1.1270     1.1130     0.2740 os         1 TEU      -0.438000
      2 C1          -0.1820     0.8000     0.6460 c3         1 TEU       0.062600
      3 C2          -1.1390     1.6550    -0.1400 c          1 TEU       0.539100
      4 O2          -0.7710     2.4510    -0.9680 o          1 TEU      -0.489100
      5 C3          -2.6210     1.5090     0.1730 c3         1 TEU       0.046300
      6 O3          -3.3590     2.4490    -0.5520 oh         1 TEU      -0.710000
      7 C4          -3.0750     0.0860    -0.1840 c3         1 TEU       0.123300
      8 O4          -2.7000    -0.2280    -1.5030 oh         1 TEU      -0.714000
      9 C5          -4.5820    -0.1150     0.0510 c3         1 TEU       0.142300
     10 O5          -4.9470     0.2900     1.3490 oh         1 TEU      -0.690000
     11 C6          -4.9790    -1.5550    -0.2310 c3         1 TEU       0.128600
     12 O6          -6.3770    -1.6710    -0.1060 oh         1 TEU      -0.707000
     13 C7           2.0920     0.6660     1.1760 c6         1 TEU       0.354300
     14 C8           3.4640     1.1330     0.6890 c6         1 TEU       0.126300
     15 O7           3.4950     2.5110     0.4190 oh         1 TEU      -0.699000
     16 C9           3.8590     0.3870    -0.5800 c6         1 TEU       0.135300
     17 O8           5.1880     0.6680    -0.9530 oh         1 TEU      -0.672000
     18 C10          3.7610    -1.1170    -0.3510 c6         1 TEU       0.150300
     19 O9           3.9890    -1.8370    -1.5360 oh         1 TEU      -0.716000
     20 C11          2.3650    -1.4700     0.1570 c6         1 TEU       0.166300
     21 O10          2.0780    -0.7220     1.3300 os         1 TEU      -0.468000
     22 C12          2.2330    -2.9340     0.5180 c3         1 TEU       0.170600
     23 O11          0.8930    -3.1840     0.8720 oh         1 TEU      -0.718000
     24 H1          -0.4160    -0.2590     0.4730 h1         1 TEU       0.060700
     25 H2          -0.3660     0.9800     1.7160 h1         1 TEU       0.060700
     26 H3          -2.7500     1.6650     1.2520 h1         1 TEU       0.084700
     27 H4          -2.7410     2.9410    -1.1120 ho         1 TEU       0.529000
     28 H5          -2.5380    -0.6200     0.4610 h1         1 TEU       0.071700
     29 H6          -3.1520     0.3780    -2.1020 ho         1 TEU       0.517000
     30 H7          -5.1340     0.5400    -0.6330 h1         1 TEU       0.101700
     31 H8          -4.5590    -0.3210     1.9850 ho         1 TEU       0.493000
     32 H9          -4.6390    -1.8310    -1.2350 h1         1 TEU       0.027200
     33 H10         -4.4530    -2.2150     0.4760 h1         1 TEU       0.027200
     34 H11         -6.6210    -2.5710    -0.3390 ho         1 TEU       0.503000
     35 H12          1.8840     1.0640     2.1800 h2         1 TEU       0.066700
     36 H13          4.1840     0.8680     1.4760 h1         1 TEU       0.054700
     37 H14          3.6380     2.9870     1.2430 ho         1 TEU       0.509000
     38 H15          3.1650     0.6580    -1.3890 h1         1 TEU       0.077700
     39 H16          5.2290     1.5730    -1.2760 ho         1 TEU       0.466000
     40 H17          4.4920    -1.3920     0.4270 h1         1 TEU       0.047700
     41 H18          4.8670    -1.6100    -1.8610 ho         1 TEU       0.526000
     42 H19          1.6360    -1.2450    -0.6350 h1         1 TEU       0.076700
     43 H20          2.5420    -3.5320    -0.3450 h1         1 TEU       0.037200
     44 H21          2.9250    -3.1690     1.3380 h1         1 TEU       0.037200
     45 H22          0.8000    -4.1270     1.0340 ho         1 TEU       0.504000
@<TRIPOS>BOND
     1     1     2 1   
     2     1    13 1   
     3     2     3 1   
     4     2    24 1   
     5     2    25 1   
     6     3     4 2   
     7     3     5 1   
     8     5     6 1   
     9     5     7 1   
    10     5    26 1   
    11     6    27 1   
    12     7     8 1   
    13     7     9 1   
    14     7    28 1   
    15     8    29 1   
    16     9    10 1   
    17     9    11 1   
    18     9    30 1   
    19    10    31 1   
    20    11    12 1   
    21    11    32 1   
    22    11    33 1   
    23    12    34 1   
    24    13    14 1   
    25    13    21 1   
    26    13    35 1   
    27    14    15 1   
    28    14    16 1   
    29    14    36 1   
    30    15    37 1   
    31    16    17 1   
    32    16    18 1   
    33    16    38 1   
    34    17    39 1   
    35    18    19 1   
    36    18    20 1   
    37    18    40 1   
    38    19    41 1   
    39    20    21 1   
    40    20    22 1   
    41    20    42 1   
    42    22    23 1   
    43    22    43 1   
    44    22    44 1   
    45    23    45 1   
@<TRIPOS>SUBSTRUCTURE
     1 TEU         1 TEMP              0 ****  ****    0 ROOT
