@<TRIPOS>MOLECULE
TEU
   45    45     1     0     0
SMALL
No Charge or Current Charge


@<TRIPOS>ATOM
      1 O1           1.1720     1.0620     0.2010 os         1 TEU      -0.438000
      2 C1          -0.2380     0.7580     0.3380 c3         1 TEU       0.062600
      3 C2          -1.0920     1.3540    -0.8120 c          1 TEU       0.539100
      4 O2          -0.5850     1.9120    -1.7830 o          1 TEU      -0.489100
      5 C3          -2.6320     1.4160    -0.5510 c3         1 TEU       0.046300
      6 O3          -3.3620     2.1890    -1.5590 oh         1 TEU      -0.710000
      7 C4          -3.2680    -0.0030    -0.4670 c3         1 TEU       0.123300
      8 O4          -3.4950    -0.4180    -1.8200 oh         1 TEU      -0.714000
      9 C5          -4.5980    -0.0310     0.3490 c3         1 TEU       0.142300
     10 O5          -4.3550     0.3410     1.7170 oh         1 TEU      -0.690000
     11 C6          -5.2760    -1.4270     0.3730 c3         1 TEU       0.128600
     12 O6          -6.3590    -1.4240     1.3240 oh         1 TEU      -0.707000
     13 C7           2.0480     0.5210     1.2110 c6         1 TEU       0.354300
     14 C8           3.5210     1.0500     1.0550 c6         1 TEU       0.126300
     15 O7           3.6170     2.4990     1.0440 oh         1 TEU      -0.699000
     16 C9           4.1420     0.4800    -0.2530 c6         1 TEU       0.135300
     17 O8           5.5130     0.9060    -0.3830 oh         1 TEU      -0.672000
     18 C10          4.0450    -1.0720    -0.2710 c6         1 TEU       0.150300
     19 O9           4.6110    -1.5750    -1.4960 oh         1 TEU      -0.716000
     20 C11          2.5550    -1.4930    -0.0890 c6         1 TEU       0.166300
     21 O10          2.0260    -0.9240     1.1420 os         1 TEU      -0.468000
     22 C12          2.3740    -3.0460    -0.0300 c3         1 TEU       0.170600
     23 O11          1.0070    -3.4560     0.1850 oh         1 TEU      -0.718000
     24 H1          -0.4000    -0.3270     0.3380 h1         1 TEU       0.060700
     25 H2          -0.6280     1.1530     1.2850 h1         1 TEU       0.060700
     26 H3          -2.7340     1.8940     0.4330 h1         1 TEU       0.084700
     27 H4          -2.8770     3.0410    -1.6990 ho         1 TEU       0.529000
     28 H5          -2.5720    -0.6940     0.0270 h1         1 TEU       0.071700
     29 H6          -3.6390     0.4470    -2.2860 ho         1 TEU       0.517000
     30 H7          -5.3020     0.6750    -0.1150 h1         1 TEU       0.101700
     31 H8          -5.0930    -0.1060     2.2020 ho         1 TEU       0.493000
     32 H9          -5.6490    -1.6660    -0.6320 h1         1 TEU       0.027200
     33 H10         -4.5320    -2.1900     0.6440 h1         1 TEU       0.027200
     34 H11         -6.8230    -2.2920     1.2400 ho         1 TEU       0.503000
     35 H12          1.6760     0.8290     2.2010 h2         1 TEU       0.066700
     36 H13          4.0970     0.6540     1.9050 h1         1 TEU       0.054700
     37 H14          3.0830     2.8390     1.8010 ho         1 TEU       0.509000
     38 H15          3.5510     0.8680    -1.0980 h1         1 TEU       0.077700
     39 H16          5.5150     1.8370    -0.0570 ho         1 TEU       0.466000
     40 H17          4.6160    -1.4630     0.5850 h1         1 TEU       0.047700
     41 H18          5.4060    -1.0080    -1.6540 ho         1 TEU       0.526000
     42 H19          1.9660    -1.1190    -0.9400 h1         1 TEU       0.076700
     43 H20          2.7470    -3.4710    -0.9720 h1         1 TEU       0.037200
     44 H21          3.0140    -3.4320     0.7750 h1         1 TEU       0.037200
     45 H22          1.0130    -4.4370     0.2780 ho         1 TEU       0.504000
@<TRIPOS>BOND
     1     1     2 1   
     2     1    13 1   
     3     2     3 1   
     4     2    24 1   
     5     2    25 1   
     6     3     4 2   
     7     3     5 1   
     8     5     6 1   
     9     5     7 1   
    10     5    26 1   
    11     6    27 1   
    12     7     8 1   
    13     7     9 1   
    14     7    28 1   
    15     8    29 1   
    16     9    10 1   
    17     9    11 1   
    18     9    30 1   
    19    10    31 1   
    20    11    12 1   
    21    11    32 1   
    22    11    33 1   
    23    12    34 1   
    24    13    14 1   
    25    13    21 1   
    26    13    35 1   
    27    14    15 1   
    28    14    16 1   
    29    14    36 1   
    30    15    37 1   
    31    16    17 1   
    32    16    18 1   
    33    16    38 1   
    34    17    39 1   
    35    18    19 1   
    36    18    20 1   
    37    18    40 1   
    38    19    41 1   
    39    20    21 1   
    40    20    22 1   
    41    20    42 1   
    42    22    23 1   
    43    22    43 1   
    44    22    44 1   
    45    23    45 1   
@<TRIPOS>SUBSTRUCTURE
     1 TEU         1 TEMP              0 ****  ****    0 ROOT
