@<TRIPOS>MOLECULE
TEV
   16    16     1     0     0
SMALL
abcg2


@<TRIPOS>ATOM
      1 O3           5.6200     1.3520   -12.6360 o          1 TEV      -0.526100
      2 C9           6.4530     1.6270   -13.4670 c          1 TEV       0.800900
      3 N2           6.7800     2.9710   -13.6950 ne         1 TEV      -0.640100
      4 N1           7.1070     0.5950   -14.1500 ne         1 TEV      -0.689100
      5 C4           7.6810     0.8760   -15.2560 c2         1 TEV       0.477300
      6 C5           8.3720    -0.1910   -16.0290 c3         1 TEV      -0.146400
      7 C3           7.6950     2.2530   -15.8220 c6         1 TEV      -0.294000
      8 C2           7.3430     3.2760   -14.7980 cf         1 TEV       0.415300
      9 C1           7.6470     4.7510   -15.1200 c          1 TEV       0.632700
     10 O1           7.7100     5.5260   -14.1590 o          1 TEV      -0.683000
     11 O2           7.7850     4.9810   -16.3330 o          1 TEV      -0.683000
     12 H1           8.2440    -1.1650   -15.5650 hc         1 TEV       0.048367
     13 H2           7.9880    -0.2220   -17.0510 hc         1 TEV       0.048367
     14 H3           9.4370     0.0370   -16.1040 hc         1 TEV       0.048367
     15 H4           8.6600     2.4750   -16.2820 hc         1 TEV       0.096200
     16 H5           6.9780     2.3040   -16.6510 hc         1 TEV       0.096200
@<TRIPOS>BOND
     1     1     2 2   
     2     2     3 1   
     3     2     4 1   
     4     3     8 2   
     5     4     5 2   
     6     5     6 1   
     7     5     7 1   
     8     6    12 1   
     9     6    13 1   
    10     6    14 1   
    11     7     8 1   
    12     7    15 1   
    13     7    16 1   
    14     8     9 1   
    15     9    10 1   
    16     9    11 1   
@<TRIPOS>SUBSTRUCTURE
     1 TEV         1 TEMP              0 ****  ****    0 ROOT
