@<TRIPOS>MOLECULE
TEV
   16    16     1     0     0
SMALL
No Charge or Current Charge


@<TRIPOS>ATOM
      1 O3           5.5790     1.3580   -12.6320 o          1 TEV      -0.526100
      2 C9           6.4800     1.6020   -13.4110 c          1 TEV       0.800900
      3 N2           6.9250     2.8870   -13.6550 ne         1 TEV      -0.640100
      4 N1           7.1490     0.6070   -14.1080 ne         1 TEV      -0.689100
      5 C4           7.6850     0.8720   -15.2550 c2         1 TEV       0.477300
      6 C5           8.3510    -0.2250   -16.0520 c3         1 TEV      -0.146400
      7 C3           7.6950     2.2460   -15.8590 c6         1 TEV      -0.294000
      8 C2           7.3660     3.3080   -14.8130 cf         1 TEV       0.415300
      9 C1           7.6190     4.8020   -15.1120 c          1 TEV       0.632700
     10 O1           7.3770     5.6440   -14.2490 o          1 TEV      -0.683000
     11 O2           8.0530     5.1200   -16.2160 o          1 TEV      -0.683000
     12 H1           8.2670    -1.1970   -15.5530 hc         1 TEV       0.048367
     13 H2           7.8930    -0.3180   -17.0430 hc         1 TEV       0.048367
     14 H3           9.4180    -0.0120   -16.1910 hc         1 TEV       0.048367
     15 H4           8.6800     2.4570   -16.2940 hc         1 TEV       0.096200
     16 H5           6.9620     2.2950   -16.6730 hc         1 TEV       0.096200
@<TRIPOS>BOND
     1     1     2 2   
     2     2     3 1   
     3     2     4 1   
     4     3     8 2   
     5     4     5 2   
     6     5     6 1   
     7     5     7 1   
     8     6    12 1   
     9     6    13 1   
    10     6    14 1   
    11     7     8 1   
    12     7    15 1   
    13     7    16 1   
    14     8     9 1   
    15     9    10 1   
    16     9    11 1   
@<TRIPOS>SUBSTRUCTURE
     1 TEV         1 TEMP              0 ****  ****    0 ROOT
