@<TRIPOS>MOLECULE
TEX
   71    73     1     0     0
SMALL
abcg2


@<TRIPOS>ATOM
      1 C1           0.0990    -1.6330    -0.3900 ca         1 TEX      -0.106000
      2 C2           1.3760    -1.0730    -0.2370 ca         1 TEX      -0.088000
      3 C3           1.6110     0.2870    -0.3470 ca         1 TEX      -0.085300
      4 C4           0.4680     1.0660    -0.6100 ca         1 TEX      -0.035200
      5 C7           3.3900     1.4380    -1.6470 c3         1 TEX      -0.083100
      6 C8           3.0360     2.0450     0.7490 c2         1 TEX      -0.234200
      7 C10          4.0500    -0.1350     0.1900 c3         1 TEX      -0.062400
      8 C11          5.4540     0.4110     0.4680 c3         1 TEX      -0.037200
      9 C12          6.3870    -0.6950     0.8530 c2         1 TEX      -0.224200
     10 C13          7.4400    -1.1570     0.1720 c2         1 TEX      -0.113400
     11 C14          7.9010    -0.6280    -1.1540 c3         1 TEX      -0.055400
     12 C15          8.2720    -2.2870     0.7060 c3         1 TEX      -0.055400
     13 C17         -0.8350     0.5300    -0.7580 ca         1 TEX      -0.109800
     14 C19         -2.9530    -0.4580     1.2110 c          1 TEX       0.561000
     15 C21         -3.2110     1.6550    -1.1070 c3         1 TEX      -0.014200
     16 C22         -3.8890     1.7160     0.2740 c3         1 TEX       0.123700
     17 C24         -5.4010     1.5710     0.1700 c3         1 TEX       0.147600
     18 C26         -5.2700    -2.2910     1.3320 c3         1 TEX      -0.087100
     19 C27         -4.3350    -3.5950    -0.5780 c3         1 TEX      -0.087100
     20 N1           0.3630     2.4180    -0.7780 na         1 TEX      -0.214700
     21 C5          -0.9380     2.7530    -1.0030 cc         1 TEX      -0.162100
     22 C6           3.0000     0.9100    -0.2540 c3         1 TEX       0.043500
     23 C9           2.2530     2.1840     1.8120 c2         1 TEX      -0.310000
     24 C16         -1.0140    -0.8650    -0.6520 ca         1 TEX       0.297000
     25 C18         -3.3890    -1.2900     0.0010 c3         1 TEX       0.161500
     26 N2          -2.2510    -1.5220    -0.8920 nh         1 TEX      -0.810400
     27 N3          -3.2970     0.8390     1.2710 ns         1 TEX      -0.488900
     28 C20         -1.7210     1.6350    -1.0060 cd         1 TEX      -0.151400
     29 O1          -2.3220    -0.9810     2.1190 o          1 TEX      -0.560000
     30 O2          -5.9700     1.8470     1.4250 oh         1 TEX      -0.652000
     31 H1          -0.0240    -2.7050    -0.3080 ha         1 TEX       0.126000
     32 H2           2.1940    -1.7490    -0.0370 ha         1 TEX       0.115000
     33 H3           4.3700     1.9180    -1.6300 hc         1 TEX       0.035700
     34 H4           3.4310     0.6180    -2.3650 hc         1 TEX       0.035700
     35 H5           2.6840     2.1750    -2.0280 hc         1 TEX       0.035700
     36 H6           3.8190     2.7810     0.5860 ha         1 TEX       0.164000
     37 H7           4.1310    -0.9070    -0.5810 hc         1 TEX       0.048200
     38 H8           3.6890    -0.6280     1.0970 hc         1 TEX       0.048200
     39 H9           5.8320     0.9560    -0.3970 hc         1 TEX       0.044700
     40 H10          5.4090     1.1310     1.2910 hc         1 TEX       0.044700
     41 H11          6.1530    -1.1790     1.7990 ha         1 TEX       0.166000
     42 H12          8.9440    -0.3040    -1.0990 hc         1 TEX       0.038200
     43 H13          7.8630    -1.4150    -1.9110 hc         1 TEX       0.038200
     44 H14          7.3130     0.2110    -1.5190 hc         1 TEX       0.038200
     45 H15          8.3010    -3.1210    -0.0000 hc         1 TEX       0.038200
     46 H16          9.3090    -1.9710     0.8520 hc         1 TEX       0.038200
     47 H17          7.8980    -2.6620     1.6580 hc         1 TEX       0.038200
     48 H18         -3.5890     0.8160    -1.6900 hc         1 TEX       0.049200
     49 H19         -3.5250     2.5490    -1.6500 hc         1 TEX       0.049200
     50 H20         -3.6920     2.7190     0.6590 h1         1 TEX       0.058700
     51 H21         -1.8650    -2.2670    -2.8130 h1         1 TEX       0.031033
     52 H22         -3.5620    -1.9720    -2.4680 h1         1 TEX       0.031033
     53 H23         -2.4930    -0.6190    -2.8230 h1         1 TEX       0.031033
     54 H24         -5.7530     2.2670    -0.6030 h1         1 TEX       0.023200
     55 H25         -5.6600     0.5620    -0.1740 h1         1 TEX       0.023200
     56 H26         -3.2710    -3.0660     1.1880 hc         1 TEX       0.081700
     57 H27         -5.7000    -3.2050     1.7440 hc         1 TEX       0.032533
     58 H28         -5.0840    -1.6140     2.1660 hc         1 TEX       0.032533
     59 H29         -6.0310    -1.8290     0.6980 hc         1 TEX       0.032533
     60 H30         -5.0620    -3.1910    -1.2870 hc         1 TEX       0.032533
     61 H31         -3.4460    -3.8930    -1.1330 hc         1 TEX       0.032533
     62 H32         -4.7700    -4.5000    -0.1490 hc         1 TEX       0.032533
     63 H33          1.1010     3.0840    -0.6340 hn         1 TEX       0.355000
     64 H34         -1.2240     3.7850    -1.1390 h4         1 TEX       0.208000
     65 H35          2.3850     3.0100     2.4980 ha         1 TEX       0.171000
     66 H36          1.4530     1.4880     2.0360 ha         1 TEX       0.171000
     67 H37         -4.1810    -0.7670    -0.5460 h1         1 TEX       0.033700
     68 H38         -2.9510     1.3060     2.0950 hn         1 TEX       0.316500
     69 H39         -6.9170     1.6990     1.3630 ho         1 TEX       0.445000
     70 C23         -2.5570    -1.5870    -2.3110 c3         1 TEX       0.188100
     71 C25         -4.0080    -2.6000     0.5280 c3         1 TEX      -0.061700
@<TRIPOS>BOND
     1     1     2 ar  
     2     1    24 ar  
     3     1    31 1   
     4     2     3 ar  
     5     2    32 1   
     6     3     4 ar  
     7     3    22 1   
     8     4    13 ar  
     9     4    20 1   
    10     5    22 1   
    11     5    33 1   
    12     5    34 1   
    13     5    35 1   
    14     6    22 1   
    15     6    23 2   
    16     6    36 1   
    17     7     8 1   
    18     7    22 1   
    19     7    37 1   
    20     7    38 1   
    21     8     9 1   
    22     8    39 1   
    23     8    40 1   
    24     9    10 2   
    25     9    41 1   
    26    10    11 1   
    27    10    12 1   
    28    11    42 1   
    29    11    43 1   
    30    11    44 1   
    31    12    45 1   
    32    12    46 1   
    33    12    47 1   
    34    13    24 ar  
    35    13    28 1   
    36    14    25 1   
    37    14    27 1   
    38    14    29 2   
    39    15    16 1   
    40    15    28 1   
    41    15    48 1   
    42    15    49 1   
    43    16    17 1   
    44    16    27 1   
    45    16    50 1   
    46    17    30 1   
    47    17    54 1   
    48    17    55 1   
    49    18    57 1   
    50    18    58 1   
    51    18    59 1   
    52    18    71 1   
    53    19    60 1   
    54    19    61 1   
    55    19    62 1   
    56    19    71 1   
    57    20    21 1   
    58    20    63 1   
    59    21    28 2   
    60    21    64 1   
    61    23    65 1   
    62    23    66 1   
    63    24    26 1   
    64    25    26 1   
    65    25    67 1   
    66    25    71 1   
    67    26    70 1   
    68    27    68 1   
    69    30    69 1   
    70    51    70 1   
    71    52    70 1   
    72    53    70 1   
    73    56    71 1   
@<TRIPOS>SUBSTRUCTURE
     1 TEX         1 TEMP              0 ****  ****    0 ROOT
