@<TRIPOS>MOLECULE
TEX
   71    73     1     0     0
SMALL
No Charge or Current Charge


@<TRIPOS>ATOM
      1 C1           0.1570    -1.5570    -0.6980 ca         1 TEX      -0.106000
      2 C2           1.4420    -1.0070    -0.4950 ca         1 TEX      -0.088000
      3 C3           1.6410     0.3990    -0.4220 ca         1 TEX      -0.085300
      4 C4           0.4790     1.1940    -0.5770 ca         1 TEX      -0.035200
      5 C7           3.4760     1.6430    -1.5960 c3         1 TEX      -0.083100
      6 C8           2.9900     2.1460     0.8270 c2         1 TEX      -0.234200
      7 C10          4.1200    -0.0070     0.2360 c3         1 TEX      -0.062400
      8 C11          5.5220     0.5450     0.6070 c3         1 TEX      -0.037200
      9 C12          6.4750    -0.5640     1.0160 c2         1 TEX      -0.224200
     10 C13          7.2570    -1.3070     0.2110 c2         1 TEX      -0.113400
     11 C14          7.3180    -1.1960    -1.3060 c3         1 TEX      -0.055400
     12 C15          8.1910    -2.3770     0.7470 c3         1 TEX      -0.055400
     13 C17         -0.7710     0.6600    -0.7810 ca         1 TEX      -0.109800
     14 C19         -2.9440    -0.2990     1.2210 c          1 TEX       0.561000
     15 C21         -3.1730     1.7600    -1.1260 c3         1 TEX      -0.014200
     16 C22         -4.0240     1.7950     0.1740 c3         1 TEX       0.123700
     17 C24         -5.5410     1.5760    -0.1040 c3         1 TEX       0.147600
     18 C26         -4.9310    -2.5470     1.5630 c3         1 TEX      -0.087100
     19 C27         -4.0870    -3.7120    -0.5180 c3         1 TEX      -0.087100
     20 N1           0.3710     2.5750    -0.5550 na         1 TEX      -0.214700
     21 C5          -0.9600     2.9790    -0.7560 cc         1 TEX      -0.162100
     22 C6           3.0500     1.0400    -0.2270 c3         1 TEX       0.043500
     23 C9           2.4310     2.0360     2.0450 c2         1 TEX      -0.310000
     24 C16         -0.9750    -0.7360    -0.8400 ca         1 TEX       0.297000
     25 C18         -3.2970    -1.2670     0.0180 c3         1 TEX       0.161500
     26 N2          -2.2370    -1.3350    -1.0520 nh         1 TEX      -0.810400
     27 N3          -3.5100     0.9620     1.2830 ns         1 TEX      -0.488900
     28 C20         -1.6780     1.8000    -0.8930 cd         1 TEX      -0.151400
     29 O1          -2.2440    -0.6560     2.1610 o          1 TEX      -0.560000
     30 O2          -6.3140     1.7110     1.1000 oh         1 TEX      -0.652000
     31 H1           0.0370    -2.6350    -0.7480 ha         1 TEX       0.126000
     32 H2           2.2700    -1.7030    -0.4040 ha         1 TEX       0.115000
     33 H3           4.4340     2.1700    -1.5290 hc         1 TEX       0.035700
     34 H4           3.5750     0.8540    -2.3510 hc         1 TEX       0.035700
     35 H5           2.7360     2.3630    -1.9620 hc         1 TEX       0.035700
     36 H6           3.4760     3.0810     0.5400 ha         1 TEX       0.164000
     37 H7           4.2610    -0.7530    -0.5560 hc         1 TEX       0.048200
     38 H8           3.7330    -0.5440     1.1110 hc         1 TEX       0.048200
     39 H9           5.9400     1.1090    -0.2330 hc         1 TEX       0.044700
     40 H10          5.4330     1.2620     1.4320 hc         1 TEX       0.044700
     41 H11          6.5030    -0.7280     2.0940 ha         1 TEX       0.166000
     42 H12          8.3200    -0.8960    -1.6370 hc         1 TEX       0.038200
     43 H13          7.0880    -2.1590    -1.7780 hc         1 TEX       0.038200
     44 H14          6.6090    -0.4660    -1.7100 hc         1 TEX       0.038200
     45 H15          7.9370    -3.3630     0.3410 hc         1 TEX       0.038200
     46 H16          9.2330    -2.1620     0.4790 hc         1 TEX       0.038200
     47 H17          8.1420    -2.4490     1.8400 hc         1 TEX       0.038200
     48 H18         -3.4530     0.9000    -1.7370 hc         1 TEX       0.049200
     49 H19         -3.4600     2.6260    -1.7350 hc         1 TEX       0.049200
     50 H20         -3.9380     2.8260     0.5410 h1         1 TEX       0.058700
     51 H21         -2.2650    -2.5650    -2.7890 h1         1 TEX       0.031033
     52 H22         -3.7510    -1.6090    -2.5390 h1         1 TEX       0.031033
     53 H23         -2.2740    -0.8140    -3.1150 h1         1 TEX       0.031033
     54 H24         -5.8720     2.3170    -0.8440 h1         1 TEX       0.023200
     55 H25         -5.7030     0.5850    -0.5440 h1         1 TEX       0.023200
     56 H26         -2.8900    -3.0770     1.1370 hc         1 TEX       0.081700
     57 H27         -5.2230    -3.5340     1.9430 hc         1 TEX       0.032533
     58 H28         -4.6770    -1.9280     2.4320 hc         1 TEX       0.032533
     59 H29         -5.8020    -2.1010     1.0680 hc         1 TEX       0.032533
     60 H30         -4.8670    -3.3320    -1.1890 hc         1 TEX       0.032533
     61 H31         -3.2040    -3.9710    -1.1120 hc         1 TEX       0.032533
     62 H32         -4.4520    -4.6420    -0.0650 hc         1 TEX       0.032533
     63 H33          1.1520     3.1990    -0.3770 hn         1 TEX       0.355000
     64 H34         -1.2740     4.0180    -0.7750 h4         1 TEX       0.208000
     65 H35          2.4370     2.8640     2.7540 ha         1 TEX       0.171000
     66 H36          1.9470     1.1150     2.3720 ha         1 TEX       0.171000
     67 H37         -4.1950    -0.8500    -0.4470 h1         1 TEX       0.033700
     68 H38         -3.3270     1.4480     2.1510 hn         1 TEX       0.316500
     69 H39         -7.2560     1.5750     0.8550 ho         1 TEX       0.445000
     70 C23         -2.6570    -1.5980    -2.4470 c3         1 TEX       0.188100
     71 C25         -3.7400    -2.6680     0.5750 c3         1 TEX      -0.061700
@<TRIPOS>BOND
     1     1     2 ar  
     2     1    24 ar  
     3     1    31 1   
     4     2     3 ar  
     5     2    32 1   
     6     3     4 ar  
     7     3    22 1   
     8     4    13 ar  
     9     4    20 1   
    10     5    22 1   
    11     5    33 1   
    12     5    34 1   
    13     5    35 1   
    14     6    22 1   
    15     6    23 2   
    16     6    36 1   
    17     7     8 1   
    18     7    22 1   
    19     7    37 1   
    20     7    38 1   
    21     8     9 1   
    22     8    39 1   
    23     8    40 1   
    24     9    10 2   
    25     9    41 1   
    26    10    11 1   
    27    10    12 1   
    28    11    42 1   
    29    11    43 1   
    30    11    44 1   
    31    12    45 1   
    32    12    46 1   
    33    12    47 1   
    34    13    24 ar  
    35    13    28 1   
    36    14    25 1   
    37    14    27 1   
    38    14    29 2   
    39    15    16 1   
    40    15    28 1   
    41    15    48 1   
    42    15    49 1   
    43    16    17 1   
    44    16    27 1   
    45    16    50 1   
    46    17    30 1   
    47    17    54 1   
    48    17    55 1   
    49    18    57 1   
    50    18    58 1   
    51    18    59 1   
    52    18    71 1   
    53    19    60 1   
    54    19    61 1   
    55    19    62 1   
    56    19    71 1   
    57    20    21 1   
    58    20    63 1   
    59    21    28 2   
    60    21    64 1   
    61    23    65 1   
    62    23    66 1   
    63    24    26 1   
    64    25    26 1   
    65    25    67 1   
    66    25    71 1   
    67    26    70 1   
    68    27    68 1   
    69    30    69 1   
    70    51    70 1   
    71    52    70 1   
    72    53    70 1   
    73    56    71 1   
@<TRIPOS>SUBSTRUCTURE
     1 TEX         1 TEMP              0 ****  ****    0 ROOT
