@<TRIPOS>MOLECULE
TEY
   85    88     1     0     0
SMALL
No Charge or Current Charge


@<TRIPOS>ATOM
      1 O20          4.0340     1.3570   -30.5310 oh         1 TEY      -0.667000
      2 C17          4.2800     0.7520   -31.8020 c3         1 TEY       0.177000
      3 C19          3.0820    -0.1760   -32.1140 c3         1 TEY      -0.097600
      4 C18          4.3640     1.8810   -32.8580 c3         1 TEY      -0.097600
      5 C16          5.5940    -0.0810   -31.7190 c3         1 TEY      -0.098400
      6 C15          6.8850     0.7060   -31.3670 c3         1 TEY      -0.073400
      7 C14          8.1270    -0.2120   -31.2410 c3         1 TEY      -0.074400
      8 C12          9.4910     0.5260   -31.0600 c3         1 TEY      -0.047700
      9 C13          9.4510     1.4560   -29.8160 c3         1 TEY      -0.090100
     10 C9          10.7710    -0.4250   -30.9720 c5         1 TEY      -0.054700
     11 C8          10.8040    -1.4680   -29.7950 c5         1 TEY      -0.073400
     12 C7          11.8400    -2.5580   -30.2470 c5         1 TEY      -0.069400
     13 C5          11.1880    -1.3220   -32.2220 c5         1 TEY      -0.043000
     14 C10         10.1550    -2.4300   -32.7140 c3         1 TEY      -0.077100
     15 C2          11.6350    -0.4950   -33.4650 c6         1 TEY      -0.064400
     16 C3          12.3740    -1.3830   -34.5070 c6         1 TEY      -0.070400
     17 C4          13.5460    -2.1960   -33.8870 c6         1 TEY      -0.044200
     18 C6          12.4550    -1.9290   -31.5360 c5         1 TEY      -0.038500
     19 C1          13.1910    -2.8410   -32.5380 c2         1 TEY      -0.073400
     20 C21         13.5470    -4.0920   -32.1360 ce         1 TEY      -0.194000
     21 C22         14.3170    -5.0680   -32.9280 ce         1 TEY      -0.149000
     22 C23         14.4670    -6.3970   -32.6450 cf         1 TEY      -0.077200
     23 C24         15.3720    -7.2750   -33.5400 c6         1 TEY      -0.029200
     24 C28         13.8230    -7.0990   -31.5280 cf         1 TEY      -0.111200
     25 C29         12.4980    -6.9740   -31.2610 c2         1 TEY      -0.307000
     26 C27         14.7650    -8.0200   -30.7160 c6         1 TEY       0.210500
     27 O30         14.1390    -8.6720   -29.6070 oh         1 TEY      -0.669000
     28 C26         15.4600    -9.0450   -31.6640 c6         1 TEY      -0.084700
     29 C25         16.2710    -8.2600   -32.7400 c6         1 TEY       0.174300
     30 O32         17.3630    -7.5520   -32.1350 oh         1 TEY      -0.659000
     31 C31         14.4800   -10.0730   -32.3450 c3         1 TEY      -0.080400
     32 C33         13.8560   -11.1700   -31.4420 c3         1 TEY       0.095600
     33 N34         14.8430   -12.0640   -30.8090 na         1 TEY       0.234600
     34 N35         15.5920   -12.9520   -31.5100 nc         1 TEY      -0.534800
     35 C36         16.2940   -13.5160   -30.5420 cd         1 TEY       0.479900
     36 N37         15.9800   -12.9980   -29.3000 nd         1 TEY      -0.391000
     37 N38         15.0660   -12.0880   -29.4690 nc         1 TEY      -0.173800
     38 H1           4.0720     0.6390   -29.8640 ho         1 TEY       0.436000
     39 H2           2.9880    -0.9670   -31.3600 hc         1 TEY       0.042033
     40 H3           2.1420     0.3890   -32.1330 hc         1 TEY       0.042033
     41 H4           3.2080    -0.6550   -33.0930 hc         1 TEY       0.042033
     42 H5           5.1200     2.6270   -32.5880 hc         1 TEY       0.042033
     43 H6           4.6210     1.4730   -33.8430 hc         1 TEY       0.042033
     44 H7           3.4040     2.4030   -32.9480 hc         1 TEY       0.042033
     45 H8           5.4620    -0.8780   -30.9750 hc         1 TEY       0.039200
     46 H9           5.7480    -0.5870   -32.6800 hc         1 TEY       0.039200
     47 H10          7.0810     1.4570   -32.1420 hc         1 TEY       0.045700
     48 H11          6.7280     1.2430   -30.4250 hc         1 TEY       0.045700
     49 H12          7.9640    -0.9080   -30.4090 hc         1 TEY       0.039200
     50 H13          8.1640    -0.8110   -32.1520 hc         1 TEY       0.039200
     51 H14          9.5600     1.2170   -31.9290 hc         1 TEY       0.046700
     52 H15          8.7130     2.2580   -29.9390 hc         1 TEY       0.033367
     53 H16          9.2000     0.8910   -28.9110 hc         1 TEY       0.033367
     54 H17         10.4220     1.9400   -29.6570 hc         1 TEY       0.033367
     55 H18         11.5790     0.2990   -30.7980 hc         1 TEY       0.042700
     56 H19         11.1040    -0.9920   -28.8550 hc         1 TEY       0.042700
     57 H20          9.8270    -1.9280   -29.6120 hc         1 TEY       0.042700
     58 H21         11.3350    -3.5110   -30.4410 hc         1 TEY       0.043700
     59 H22         12.5990    -2.7460   -29.4790 hc         1 TEY       0.043700
     60 H23          9.5550    -2.8350   -31.8920 hc         1 TEY       0.034367
     61 H24          9.4570    -2.0270   -33.4570 hc         1 TEY       0.034367
     62 H25         10.6550    -3.2820   -33.1890 hc         1 TEY       0.034367
     63 H26         12.3040     0.3180   -33.1490 hc         1 TEY       0.041200
     64 H27         10.7670    -0.0120   -33.9320 hc         1 TEY       0.041200
     65 H28         12.7560    -0.7530   -35.3210 hc         1 TEY       0.040700
     66 H29         11.6630    -2.0740   -34.9790 hc         1 TEY       0.040700
     67 H30         13.8720    -2.9410   -34.6210 hc         1 TEY       0.047200
     68 H31         14.4010    -1.5250   -33.7320 hc         1 TEY       0.047200
     69 H32         13.1510    -1.1350   -31.2440 hc         1 TEY       0.053700
     70 H33         13.2860    -4.4420   -31.1400 ha         1 TEY       0.175000
     71 H34         14.8440    -4.6840   -33.8000 ha         1 TEY       0.171000
     72 H35         16.0070    -6.6480   -34.1800 hc         1 TEY       0.057700
     73 H36         14.7320    -7.8430   -34.2280 hc         1 TEY       0.057700
     74 H37         12.0130    -7.5140   -30.4490 ha         1 TEY       0.170000
     75 H38         11.8610    -6.3370   -31.8750 ha         1 TEY       0.170000
     76 H39         15.5540    -7.3670   -30.3110 h1         1 TEY       0.057700
     77 H40         13.7850    -7.9550   -29.0380 ho         1 TEY       0.449000
     78 H41         16.1730    -9.6370   -31.0750 hc         1 TEY       0.062700
     79 H42         16.6850    -8.9850   -33.4580 h1         1 TEY       0.040700
     80 H43         18.0080    -8.2280   -31.8330 ho         1 TEY       0.442000
     81 H44         15.0080   -10.5900   -33.1570 hc         1 TEY       0.063700
     82 H45         13.6550    -9.5380   -32.8300 hc         1 TEY       0.063700
     83 H46         13.2320   -10.7180   -30.6650 h1         1 TEY       0.087200
     84 H47         13.1940   -11.7930   -32.0550 h1         1 TEY       0.087200
     85 H48         17.0330   -14.2970   -30.6820 h5         1 TEY       0.074100
@<TRIPOS>BOND
     1     1     2 1   
     2     1    38 1   
     3     2     3 1   
     4     2     4 1   
     5     2     5 1   
     6     3    39 1   
     7     3    40 1   
     8     3    41 1   
     9     4    42 1   
    10     4    43 1   
    11     4    44 1   
    12     5     6 1   
    13     5    45 1   
    14     5    46 1   
    15     6     7 1   
    16     6    47 1   
    17     6    48 1   
    18     7     8 1   
    19     7    49 1   
    20     7    50 1   
    21     8     9 1   
    22     8    10 1   
    23     8    51 1   
    24     9    52 1   
    25     9    53 1   
    26     9    54 1   
    27    10    11 1   
    28    10    13 1   
    29    10    55 1   
    30    11    12 1   
    31    11    56 1   
    32    11    57 1   
    33    12    18 1   
    34    12    58 1   
    35    12    59 1   
    36    13    14 1   
    37    13    15 1   
    38    13    18 1   
    39    14    60 1   
    40    14    61 1   
    41    14    62 1   
    42    15    16 1   
    43    15    63 1   
    44    15    64 1   
    45    16    17 1   
    46    16    65 1   
    47    16    66 1   
    48    17    19 1   
    49    17    67 1   
    50    17    68 1   
    51    18    19 1   
    52    18    69 1   
    53    19    20 2   
    54    20    21 1   
    55    20    70 1   
    56    21    22 2   
    57    21    71 1   
    58    22    23 1   
    59    22    24 1   
    60    23    29 1   
    61    23    72 1   
    62    23    73 1   
    63    24    25 2   
    64    24    26 1   
    65    25    74 1   
    66    25    75 1   
    67    26    27 1   
    68    26    28 1   
    69    26    76 1   
    70    27    77 1   
    71    28    29 1   
    72    28    31 1   
    73    28    78 1   
    74    29    30 1   
    75    29    79 1   
    76    30    80 1   
    77    31    32 1   
    78    31    81 1   
    79    31    82 1   
    80    32    33 1   
    81    32    83 1   
    82    32    84 1   
    83    33    34 1   
    84    33    37 1   
    85    34    35 2   
    86    35    36 1   
    87    35    85 1   
    88    36    37 2   
@<TRIPOS>SUBSTRUCTURE
     1 TEY         1 TEMP              0 ****  ****    0 ROOT
