@<TRIPOS>MOLECULE
TEY
   85    88     1     0     0
SMALL
abcg2


@<TRIPOS>ATOM
      1 O20          4.3000     1.5750   -31.5340 oh         1 TEY      -0.667000
      2 C17          4.4860     0.1860   -31.8970 c3         1 TEY       0.177000
      3 C19          3.2920    -0.6250   -31.3920 c3         1 TEY      -0.097600
      4 C18          4.5330     0.1690   -33.4200 c3         1 TEY      -0.097600
      5 C16          5.7800    -0.3540   -31.2680 c3         1 TEY      -0.098400
      6 C15          7.0660     0.3760   -31.6470 c3         1 TEY      -0.073400
      7 C14          8.2820    -0.1680   -30.8960 c3         1 TEY      -0.074400
      8 C12          9.5780     0.6020   -31.2010 c3         1 TEY      -0.047700
      9 C13          9.5920     1.9330   -30.4380 c3         1 TEY      -0.090100
     10 C9          10.8870    -0.1690   -30.9330 c5         1 TEY      -0.054700
     11 C8          10.9290    -1.0770   -29.6740 c5         1 TEY      -0.073400
     12 C7          11.9700    -2.1910   -29.9770 c5         1 TEY      -0.069400
     13 C5          11.4450    -1.0620   -32.0660 c5         1 TEY      -0.043000
     14 C10         10.4220    -2.0870   -32.5700 c3         1 TEY      -0.077100
     15 C2          12.0440    -0.2880   -33.2440 c6         1 TEY      -0.064400
     16 C3          12.8960    -1.1910   -34.1470 c6         1 TEY      -0.070400
     17 C4          13.9560    -1.9900   -33.3620 c6         1 TEY      -0.044200
     18 C6          12.6080    -1.7540   -31.2960 c5         1 TEY      -0.038500
     19 C1          13.3650    -2.7030   -32.1700 c2         1 TEY      -0.073400
     20 C21         13.4510    -4.0240   -31.9290 ce         1 TEY      -0.194000
     21 C22         14.1610    -4.9970   -32.7330 ce         1 TEY      -0.149000
     22 C23         14.1500    -6.3360   -32.5810 cf         1 TEY      -0.077200
     23 C24         15.0030    -7.2240   -33.4550 c6         1 TEY      -0.029200
     24 C28         13.3540    -7.0650   -31.5700 cf         1 TEY      -0.111200
     25 C29         12.0430    -6.8930   -31.3960 c2         1 TEY      -0.307000
     26 C27         14.1640    -8.0660   -30.7670 c6         1 TEY       0.210500
     27 O30         13.3900    -8.8290   -29.8450 oh         1 TEY      -0.669000
     28 C26         14.9200    -9.0370   -31.6870 c6         1 TEY      -0.084700
     29 C25         15.8120    -8.2330   -32.6490 c6         1 TEY       0.174300
     30 O32         16.8220    -7.5040   -31.9410 oh         1 TEY      -0.659000
     31 C31         13.9980    -9.9890   -32.4630 c3         1 TEY      -0.080400
     32 C33         13.5860   -11.2440   -31.7000 c3         1 TEY       0.095600
     33 N34         14.7400   -12.0690   -31.3430 na         1 TEY       0.234600
     34 N35         15.5350   -12.6390   -32.2340 nc         1 TEY      -0.534800
     35 C36         16.4330   -13.2370   -31.4640 cd         1 TEY       0.479900
     36 N37         16.1910   -13.0330   -30.1540 nd         1 TEY      -0.391000
     37 N38         15.1110   -12.2860   -30.0980 nc         1 TEY      -0.173800
     38 H1           4.2710     1.6270   -30.5700 ho         1 TEY       0.436000
     39 H2           3.2310    -0.5730   -30.3020 hc         1 TEY       0.042033
     40 H3           2.3630    -0.2330   -31.8100 hc         1 TEY       0.042033
     41 H4           3.3860    -1.6740   -31.6770 hc         1 TEY       0.042033
     42 H5           5.3200     0.8230   -33.7950 hc         1 TEY       0.042033
     43 H6           4.7230    -0.8430   -33.7800 hc         1 TEY       0.042033
     44 H7           3.5790     0.5080   -33.8300 hc         1 TEY       0.042033
     45 H8           5.6580    -0.3180   -30.1790 hc         1 TEY       0.039200
     46 H9           5.8700    -1.4130   -31.5310 hc         1 TEY       0.039200
     47 H10          7.2490     0.2820   -32.7210 hc         1 TEY       0.045700
     48 H11          6.9440     1.4420   -31.4450 hc         1 TEY       0.045700
     49 H12          8.0870    -0.1290   -29.8190 hc         1 TEY       0.039200
     50 H13          8.3950    -1.2230   -31.1450 hc         1 TEY       0.039200
     51 H14          9.5680     0.8410   -32.2710 hc         1 TEY       0.046700
     52 H15          8.6800     2.5070   -30.6100 hc         1 TEY       0.033367
     53 H16          9.6760     1.7550   -29.3620 hc         1 TEY       0.033367
     54 H17         10.4410     2.5500   -30.7420 hc         1 TEY       0.033367
     55 H18         11.6580     0.5970   -30.7930 hc         1 TEY       0.042700
     56 H19         11.2050    -0.4990   -28.7910 hc         1 TEY       0.042700
     57 H20          9.9540    -1.5160   -29.4690 hc         1 TEY       0.042700
     58 H21         11.4720    -3.1550   -30.0860 hc         1 TEY       0.043700
     59 H22         12.7100    -2.3000   -29.1830 hc         1 TEY       0.043700
     60 H23          9.9690    -2.6480   -31.7530 hc         1 TEY       0.034367
     61 H24          9.6210    -1.5880   -33.1190 hc         1 TEY       0.034367
     62 H25         10.8850    -2.8100   -33.2400 hc         1 TEY       0.034367
     63 H26         12.6730     0.5160   -32.8460 hc         1 TEY       0.041200
     64 H27         11.2560     0.1870   -33.8360 hc         1 TEY       0.041200
     65 H28         13.3960    -0.5850   -34.9060 hc         1 TEY       0.040700
     66 H29         12.2520    -1.8910   -34.6840 hc         1 TEY       0.040700
     67 H30         14.4670    -2.6740   -34.0370 hc         1 TEY       0.047200
     68 H31         14.7100    -1.2830   -32.9910 hc         1 TEY       0.047200
     69 H32         13.3040    -0.9370   -31.0570 hc         1 TEY       0.053700
     70 H33         12.9500    -4.4070   -31.0490 ha         1 TEY       0.175000
     71 H34         14.7930    -4.6110   -33.5250 ha         1 TEY       0.171000
     72 H35         15.6770    -6.6250   -34.0690 hc         1 TEY       0.057700
     73 H36         14.3600    -7.7900   -34.1380 hc         1 TEY       0.057700
     74 H37         11.4920    -7.4690   -30.6640 ha         1 TEY       0.170000
     75 H38         11.4880    -6.1820   -31.9910 ha         1 TEY       0.170000
     76 H39         14.9180    -7.4950   -30.2150 h1         1 TEY       0.057700
     77 H40         13.0560    -8.2350   -29.1620 ho         1 TEY       0.449000
     78 H41         15.5890    -9.6290   -31.0540 hc         1 TEY       0.062700
     79 H42         16.2930    -8.9360   -33.3370 h1         1 TEY       0.040700
     80 H43         17.3640    -8.1360   -31.4520 ho         1 TEY       0.442000
     81 H44         14.4890   -10.2960   -33.3890 hc         1 TEY       0.063700
     82 H45         13.0780    -9.4770   -32.7520 hc         1 TEY       0.063700
     83 H46         13.0970   -11.0000   -30.7630 h1         1 TEY       0.087200
     84 H47         12.9250   -11.8610   -32.3070 h1         1 TEY       0.087200
     85 H48         17.2570   -13.8170   -31.8450 h5         1 TEY       0.074100
@<TRIPOS>BOND
     1     1     2 1   
     2     1    38 1   
     3     2     3 1   
     4     2     4 1   
     5     2     5 1   
     6     3    39 1   
     7     3    40 1   
     8     3    41 1   
     9     4    42 1   
    10     4    43 1   
    11     4    44 1   
    12     5     6 1   
    13     5    45 1   
    14     5    46 1   
    15     6     7 1   
    16     6    47 1   
    17     6    48 1   
    18     7     8 1   
    19     7    49 1   
    20     7    50 1   
    21     8     9 1   
    22     8    10 1   
    23     8    51 1   
    24     9    52 1   
    25     9    53 1   
    26     9    54 1   
    27    10    11 1   
    28    10    13 1   
    29    10    55 1   
    30    11    12 1   
    31    11    56 1   
    32    11    57 1   
    33    12    18 1   
    34    12    58 1   
    35    12    59 1   
    36    13    14 1   
    37    13    15 1   
    38    13    18 1   
    39    14    60 1   
    40    14    61 1   
    41    14    62 1   
    42    15    16 1   
    43    15    63 1   
    44    15    64 1   
    45    16    17 1   
    46    16    65 1   
    47    16    66 1   
    48    17    19 1   
    49    17    67 1   
    50    17    68 1   
    51    18    19 1   
    52    18    69 1   
    53    19    20 2   
    54    20    21 1   
    55    20    70 1   
    56    21    22 2   
    57    21    71 1   
    58    22    23 1   
    59    22    24 1   
    60    23    29 1   
    61    23    72 1   
    62    23    73 1   
    63    24    25 2   
    64    24    26 1   
    65    25    74 1   
    66    25    75 1   
    67    26    27 1   
    68    26    28 1   
    69    26    76 1   
    70    27    77 1   
    71    28    29 1   
    72    28    31 1   
    73    28    78 1   
    74    29    30 1   
    75    29    79 1   
    76    30    80 1   
    77    31    32 1   
    78    31    81 1   
    79    31    82 1   
    80    32    33 1   
    81    32    83 1   
    82    32    84 1   
    83    33    34 1   
    84    33    37 1   
    85    34    35 2   
    86    35    36 1   
    87    35    85 1   
    88    36    37 2   
@<TRIPOS>SUBSTRUCTURE
     1 TEY         1 TEMP              0 ****  ****    0 ROOT
