@<TRIPOS>MOLECULE
TEZ
   20    21     1     0     0
SMALL
abcg2


@<TRIPOS>ATOM
      1 C10          1.6190    -5.9820     6.8630 ca         1 TEZ      -0.106000
      2 C01          5.4880    -5.6500     9.1720 c3         1 TEZ      -0.179100
      3 C02          4.1400    -5.9410     8.5580 c          1 TEZ       0.602100
      4 C05          2.6760    -5.1140     6.7070 ca         1 TEZ      -0.022000
      5 C06          2.6510    -4.0960     5.6930 ca         1 TEZ      -0.140000
      6 C07          1.5970    -3.9340     4.8480 ca         1 TEZ      -0.038000
      7 C08          0.4900    -4.8080     4.9820 ca         1 TEZ      -0.096000
      8 C09          0.5120    -5.8330     5.9960 ca         1 TEZ      -0.048000
      9 N04          3.8320    -5.1360     7.4920 ns         1 TEZ      -0.152000
     10 N11         -0.6030    -6.5820     6.0000 nc         1 TEZ      -0.298500
     11 N13         -0.6330    -4.8080     4.2530 nc         1 TEZ      -0.294500
     12 O03          3.3920    -6.8120     8.9800 o          1 TEZ      -0.569100
     13 S12         -1.5590    -6.0100     4.8210 ss         1 TEZ       0.568000
     14 H1           1.6280    -6.7480     7.6170 ha         1 TEZ       0.172000
     15 H2           5.6810    -6.3660     9.9660 hc         1 TEZ       0.066700
     16 H3           6.2760    -5.7140     8.4200 hc         1 TEZ       0.066700
     17 H4           5.5030    -4.6380     9.5840 hc         1 TEZ       0.066700
     18 H5           3.5090    -3.4380     5.6120 ha         1 TEZ       0.114000
     19 H6           1.5950    -3.1610     4.0910 ha         1 TEZ       0.138000
     20 H7           4.5310    -4.4520     7.2430 hn         1 TEZ       0.149000
@<TRIPOS>BOND
     1     1     4 ar  
     2     1     8 ar  
     3     1    14 1   
     4     2     3 1   
     5     2    15 1   
     6     2    16 1   
     7     2    17 1   
     8     3     9 1   
     9     3    12 2   
    10     4     5 ar  
    11     4     9 1   
    12     5     6 ar  
    13     5    18 1   
    14     6     7 ar  
    15     6    19 1   
    16     7     8 ar  
    17     7    11 2   
    18     8    10 2   
    19     9    20 1   
    20    10    13 1   
    21    11    13 1   
@<TRIPOS>SUBSTRUCTURE
     1 TEZ         1 TEMP              0 ****  ****    0 ROOT
