@<TRIPOS>MOLECULE
TEZ
   20    21     1     0     0
SMALL
No Charge or Current Charge


@<TRIPOS>ATOM
      1 C10          1.5740    -5.9440     6.8260 ca         1 TEZ      -0.106000
      2 C01          5.5370    -5.6780     9.2150 c3         1 TEZ      -0.179100
      3 C02          4.1730    -5.9770     8.6000 c          1 TEZ       0.602100
      4 C05          2.6850    -5.0750     6.7060 ca         1 TEZ      -0.022000
      5 C06          2.6670    -4.0810     5.7050 ca         1 TEZ      -0.140000
      6 C07          1.5660    -3.9520     4.8380 ca         1 TEZ      -0.038000
      7 C08          0.4750    -4.8240     4.9760 ca         1 TEZ      -0.096000
      8 C09          0.4810    -5.8040     5.9550 ca         1 TEZ      -0.048000
      9 N04          3.8340    -5.1430     7.5430 ns         1 TEZ      -0.152000
     10 N11         -0.6410    -6.6030     5.9990 nc         1 TEZ      -0.298500
     11 N13         -0.6510    -4.7840     4.1820 nc         1 TEZ      -0.294500
     12 O03          3.4660    -6.8820     9.0280 o          1 TEZ      -0.569100
     13 S12         -1.6370    -6.0290     4.7610 ss         1 TEZ       0.568000
     14 H1           1.5400    -6.7240     7.5800 ha         1 TEZ       0.172000
     15 H2           5.7820    -6.3480    10.0470 hc         1 TEZ       0.066700
     16 H3           6.2980    -5.7130     8.4280 hc         1 TEZ       0.066700
     17 H4           5.5670    -4.6260     9.5210 hc         1 TEZ       0.066700
     18 H5           3.5110    -3.4030     5.5950 ha         1 TEZ       0.114000
     19 H6           1.5610    -3.1820     4.0690 ha         1 TEZ       0.138000
     20 H7           4.5380    -4.4500     7.3250 hn         1 TEZ       0.149000
@<TRIPOS>BOND
     1     1     4 ar  
     2     1     8 ar  
     3     1    14 1   
     4     2     3 1   
     5     2    15 1   
     6     2    16 1   
     7     2    17 1   
     8     3     9 1   
     9     3    12 2   
    10     4     5 ar  
    11     4     9 1   
    12     5     6 ar  
    13     5    18 1   
    14     6     7 ar  
    15     6    19 1   
    16     7     8 ar  
    17     7    11 2   
    18     8    10 2   
    19     9    20 1   
    20    10    13 1   
    21    11    13 1   
@<TRIPOS>SUBSTRUCTURE
     1 TEZ         1 TEMP              0 ****  ****    0 ROOT
