@<TRIPOS>MOLECULE
TF1
   47    48     1     0     0
SMALL
No Charge or Current Charge


@<TRIPOS>ATOM
      1 N1          57.2840    60.1300    76.7580 n          1 TF1      -0.390800
      2 C1          58.3590    59.4970    76.0700 c          1 TF1       0.596100
      3 C2          56.4800    61.2060    76.1000 c6         1 TF1       0.079700
      4 C3          57.1790    60.1790    78.2510 c6         1 TF1       0.093000
      5 C4          58.9640    58.1150    76.5720 c3         1 TF1       0.055000
      6 O1          58.7710    60.0060    75.0320 o          1 TF1      -0.590100
      7 C5          56.8250    62.6060    76.6840 c6         1 TF1       0.083000
      8 C6          54.9570    60.9040    76.1570 c3         1 TF1      -0.102100
      9 C7          57.5500    61.5750    78.8280 c6         1 TF1       0.102700
     10 C8          57.8140    57.0440    76.6910 c3         1 TF1       0.283000
     11 C9          60.0470    57.6110    75.5660 c3         1 TF1      -0.120100
     12 O2          59.6700    58.2500    77.8380 oh         1 TF1      -0.649000
     13 N2          56.7400    62.6480    78.1740 n          1 TF1      -0.406800
     14 C10         59.0790    61.8340    78.7210 c3         1 TF1      -0.097100
     15 F1          57.1130    56.9590    75.5370 f          1 TF1      -0.106000
     16 F2          58.3130    55.8120    76.9510 f          1 TF1      -0.106000
     17 F3          56.9340    57.3240    77.6780 f          1 TF1      -0.106000
     18 C11         55.6220    63.2410    78.8150 c          1 TF1       0.609700
     19 C12         55.6640    63.4740    80.3120 ca         1 TF1      -0.118600
     20 O3          54.6630    63.6380    78.1630 o          1 TF1      -0.591100
     21 C13         56.8630    63.8050    80.9830 ca         1 TF1      -0.085500
     22 C14         54.4640    63.4230    81.0550 ca         1 TF1      -0.085500
     23 C15         56.8680    64.0360    82.3700 ca         1 TF1      -0.075000
     24 C16         54.4690    63.6520    82.4420 ca         1 TF1      -0.075000
     25 C17         55.6720    63.9540    83.1060 ca         1 TF1      -0.006000
     26 C18         55.6770    64.1910    84.5240 cg         1 TF1       0.318000
     27 N3          55.6880    64.3780    85.6770 n1         1 TF1      -0.442000
     28 H2          56.7250    61.2410    75.0290 h1         1 TF1       0.092700
     29 H3C1        57.8030    59.4220    78.7340 h1         1 TF1       0.073200
     30 H3C2        56.1460    59.9430    78.5400 h1         1 TF1       0.073200
     31 H5C1        56.1710    63.3650    76.2320 h1         1 TF1       0.072200
     32 H5C2        57.8480    62.8700    76.3820 h1         1 TF1       0.072200
     33 H6C1        54.7370    59.9260    75.7120 hc         1 TF1       0.048033
     34 H6C2        54.3880    61.6570    75.5980 hc         1 TF1       0.048033
     35 H6C3        54.5740    60.8970    77.1830 hc         1 TF1       0.048033
     36 H7          57.3120    61.5330    79.8990 h1         1 TF1       0.070700
     37 H9C1        60.5120    56.6790    75.9110 hc         1 TF1       0.069700
     38 H9C2        60.8470    58.3510    75.4400 hc         1 TF1       0.069700
     39 H9C3        59.6100    57.4210    74.5780 hc         1 TF1       0.069700
     40 HA          60.4960    58.7590    77.6730 ho         1 TF1       0.468000
     41 H101        59.6430    61.0870    79.2930 hc         1 TF1       0.045700
     42 H102        59.3470    62.8200    79.1160 hc         1 TF1       0.045700
     43 H103        59.4330    61.7900    77.6850 hc         1 TF1       0.045700
     44 H13         57.7920    63.9080    80.4300 ha         1 TF1       0.128500
     45 H14         53.5240    63.1920    80.5570 ha         1 TF1       0.128500
     46 H15         57.8020    64.2870    82.8690 ha         1 TF1       0.130500
     47 H16         53.5340    63.5970    82.9980 ha         1 TF1       0.130500
@<TRIPOS>BOND
     1     1     2 1   
     2     1     3 1   
     3     1     4 1   
     4     2     5 1   
     5     2     6 2   
     6     3     7 1   
     7     3     8 1   
     8     3    28 1   
     9     4     9 1   
    10     4    29 1   
    11     4    30 1   
    12     5    10 1   
    13     5    11 1   
    14     5    12 1   
    15     7    13 1   
    16     7    31 1   
    17     7    32 1   
    18     8    33 1   
    19     8    34 1   
    20     8    35 1   
    21     9    13 1   
    22     9    14 1   
    23     9    36 1   
    24    10    15 1   
    25    10    16 1   
    26    10    17 1   
    27    11    37 1   
    28    11    38 1   
    29    11    39 1   
    30    12    40 1   
    31    13    18 1   
    32    14    41 1   
    33    14    42 1   
    34    14    43 1   
    35    18    19 1   
    36    18    20 2   
    37    19    21 ar  
    38    19    22 ar  
    39    21    23 ar  
    40    21    44 1   
    41    22    24 ar  
    42    22    45 1   
    43    23    25 ar  
    44    23    46 1   
    45    24    25 ar  
    46    24    47 1   
    47    25    26 1   
    48    26    27 3   
@<TRIPOS>SUBSTRUCTURE
     1 TF1         1 TEMP              0 ****  ****    0 ROOT
