@<TRIPOS>MOLECULE
TF1
   47    48     1     0     0
SMALL
abcg2


@<TRIPOS>ATOM
      1 N1          57.3030    60.2430    76.7730 n          1 TF1      -0.390800
      2 C1          57.9320    59.3250    76.0070 c          1 TF1       0.596100
      3 C2          56.5290    61.2960    76.0820 c6         1 TF1       0.079700
      4 C3          57.1440    60.2580    78.2290 c6         1 TF1       0.093000
      5 C4          58.8100    58.1920    76.6410 c3         1 TF1       0.055000
      6 O1          57.8500    59.3340    74.7800 o          1 TF1      -0.590100
      7 C5          56.9010    62.6550    76.6730 c6         1 TF1       0.083000
      8 C6          55.0290    61.0140    76.1250 c3         1 TF1      -0.102100
      9 C7          57.5370    61.6170    78.8190 c6         1 TF1       0.102700
     10 C8          57.8980    56.9790    76.9390 c3         1 TF1       0.283000
     11 C9          59.8860    57.7780    75.6390 c3         1 TF1      -0.120100
     12 O2          59.3980    58.5600    77.8750 oh         1 TF1      -0.649000
     13 N2          56.7730    62.6650    78.1270 n          1 TF1      -0.406800
     14 C10         59.0390    61.8760    78.7700 c3         1 TF1      -0.097100
     15 F1          57.1990    56.5990    75.8520 f          1 TF1      -0.106000
     16 F2          58.6140    55.9140    77.3470 f          1 TF1      -0.106000
     17 F3          57.0020    57.2410    77.9120 f          1 TF1      -0.106000
     18 C11         55.9010    63.5010    78.7260 c          1 TF1       0.609700
     19 C12         55.8650    63.5190    80.2280 ca         1 TF1      -0.118600
     20 O3          55.1540    64.2660    78.1100 o          1 TF1      -0.591100
     21 C13         56.9160    64.0800    80.9520 ca         1 TF1      -0.085500
     22 C14         54.7260    63.0640    80.8910 ca         1 TF1      -0.085500
     23 C15         56.8360    64.1880    82.3300 ca         1 TF1      -0.075000
     24 C16         54.6400    63.1520    82.2700 ca         1 TF1      -0.075000
     25 C17         55.6970    63.7180    82.9920 ca         1 TF1      -0.006000
     26 C18         55.6110    63.8210    84.4130 cg         1 TF1       0.318000
     27 N3          55.5430    63.9040    85.5620 n1         1 TF1      -0.442000
     28 H2          56.8580    61.2900    75.0480 h1         1 TF1       0.092700
     29 H3C1        57.7430    59.4870    78.6860 h1         1 TF1       0.073200
     30 H3C2        56.0960    60.0640    78.4630 h1         1 TF1       0.073200
     31 H5C1        56.2520    63.4240    76.2670 h1         1 TF1       0.072200
     32 H5C2        57.9320    62.8980    76.4090 h1         1 TF1       0.072200
     33 H6C1        54.8220    60.0150    75.7390 hc         1 TF1       0.048033
     34 H6C2        54.5060    61.7410    75.5040 hc         1 TF1       0.048033
     35 H6C3        54.6270    61.0850    77.1360 hc         1 TF1       0.048033
     36 H7          57.2130    61.6050    79.8570 h1         1 TF1       0.070700
     37 H9C1        60.5190    57.0160    76.0940 hc         1 TF1       0.069700
     38 H9C2        60.4910    58.6490    75.3920 hc         1 TF1       0.069700
     39 H9C3        59.4520    57.3870    74.7240 hc         1 TF1       0.069700
     40 HA          60.3590    58.5180    77.7900 ho         1 TF1       0.468000
     41 H101        59.5560    61.1310    79.3750 hc         1 TF1       0.045700
     42 H102        59.2670    62.8660    79.1650 hc         1 TF1       0.045700
     43 H103        59.4290    61.8100    77.7540 hc         1 TF1       0.045700
     44 H13         57.7980    64.4360    80.4360 ha         1 TF1       0.128500
     45 H14         53.9080    62.6360    80.3260 ha         1 TF1       0.128500
     46 H15         57.6460    64.6290    82.8940 ha         1 TF1       0.130500
     47 H16         53.7640    62.7900    82.7900 ha         1 TF1       0.130500
@<TRIPOS>BOND
     1     1     2 1   
     2     1     3 1   
     3     1     4 1   
     4     2     5 1   
     5     2     6 2   
     6     3     7 1   
     7     3     8 1   
     8     3    28 1   
     9     4     9 1   
    10     4    29 1   
    11     4    30 1   
    12     5    10 1   
    13     5    11 1   
    14     5    12 1   
    15     7    13 1   
    16     7    31 1   
    17     7    32 1   
    18     8    33 1   
    19     8    34 1   
    20     8    35 1   
    21     9    13 1   
    22     9    14 1   
    23     9    36 1   
    24    10    15 1   
    25    10    16 1   
    26    10    17 1   
    27    11    37 1   
    28    11    38 1   
    29    11    39 1   
    30    12    40 1   
    31    13    18 1   
    32    14    41 1   
    33    14    42 1   
    34    14    43 1   
    35    18    19 1   
    36    18    20 2   
    37    19    21 ar  
    38    19    22 ar  
    39    21    23 ar  
    40    21    44 1   
    41    22    24 ar  
    42    22    45 1   
    43    23    25 ar  
    44    23    46 1   
    45    24    25 ar  
    46    24    47 1   
    47    25    26 1   
    48    26    27 3   
@<TRIPOS>SUBSTRUCTURE
     1 TF1         1 TEMP              0 ****  ****    0 ROOT
