@<TRIPOS>MOLECULE
TF2
   50    51     1     0     0
SMALL
bcc


@<TRIPOS>ATOM
      1 C1          -1.2180    -0.8420     1.4980 ca         1 TF2      -0.315500
      2 S1          -1.5910    -1.1790     3.1920 sy         1 TF2       1.298200
      3 C2          -2.0920    -0.0680     0.7460 ca         1 TF2      -0.018000
      4 C3          -0.0270    -1.3030     0.9570 ca         1 TF2      -0.009000
      5 N1          -0.9270     0.0800     4.0580 nh         1 TF2      -0.600900
      6 O1          -0.8800    -2.3830     3.5810 o          1 TF2      -0.600800
      7 O2          -3.0310    -1.1020     3.3700 o          1 TF2      -0.600800
      8 C4          -1.7790     0.2800    -0.5610 ca         1 TF2      -0.131300
      9 C5           0.2920    -0.9740    -0.3490 ca         1 TF2      -0.148000
     10 C6           0.4970     0.0520     4.1750 ca         1 TF2       0.083600
     11 C7          -1.5600     1.4000     3.9060 c3         1 TF2       0.204800
     12 C8          -0.5710    -0.1820    -1.0990 ca         1 TF2       0.103600
     13 C9          -2.7110     1.1320    -1.3690 c3         1 TF2      -0.051800
     14 C10          1.3050     0.7400     3.2760 ca         1 TF2      -0.112000
     15 C11          1.0710    -0.6620     5.2200 ca         1 TF2      -0.112000
     16 C12         -1.2250     2.2980     5.0800 c3         1 TF2      -0.091100
     17 N2          -0.2820     0.1570    -2.4320 ns         1 TF2      -0.464100
     18 C13          2.6840     0.7130     3.4250 ca         1 TF2      -0.123500
     19 C14          2.4500    -0.6940     5.3590 ca         1 TF2      -0.123500
     20 C15          0.9270     0.5100    -2.9120 c          1 TF2       0.642100
     21 C16          3.2590    -0.0080     4.4630 ca         1 TF2      -0.119000
     22 C17          0.9860     0.9370    -4.4010 c3         1 TF2       0.028800
     23 O3           1.9480     0.5360    -2.2560 o          1 TF2      -0.565100
     24 C18          0.7930    -0.3040    -5.2870 c3         1 TF2       0.643900
     25 C19         -0.0480     2.0150    -4.7200 c3         1 TF2      -0.102100
     26 O4           2.2570     1.4330    -4.6620 oh         1 TF2      -0.565800
     27 F1           0.9970    -0.0170    -6.5720 f          1 TF2      -0.228633
     28 F2           1.6510    -1.2730    -4.9500 f          1 TF2      -0.228633
     29 F3          -0.4410    -0.8180    -5.1880 f          1 TF2      -0.228633
     30 H2          -3.0250     0.2790     1.1700 ha         1 TF2       0.153000
     31 H3           0.6480    -1.9220     1.5300 ha         1 TF2       0.165000
     32 H5           1.2050    -1.3570    -0.7770 ha         1 TF2       0.161000
     33 H7C1        -2.6370     1.2520     3.8690 h1         1 TF2       0.050700
     34 H7C2        -1.2670     1.8740     2.9630 h1         1 TF2       0.050700
     35 H9C1        -3.1160     0.5910    -2.2280 hc         1 TF2       0.046700
     36 H9C2        -3.5580     1.4580    -0.7700 hc         1 TF2       0.046700
     37 H9C3        -2.2080     2.0240    -1.7480 hc         1 TF2       0.046700
     38 H10          0.8640     1.3040     2.4640 ha         1 TF2       0.144000
     39 H11          0.4350    -1.1810     5.9260 ha         1 TF2       0.144000
     40 H121        -1.7550     3.2430     4.9670 hc         1 TF2       0.045700
     41 H122        -1.5360     1.8430     6.0200 hc         1 TF2       0.045700
     42 H123        -0.1600     2.5200     5.1400 hc         1 TF2       0.045700
     43 HA          -1.0780     0.2350    -3.0460 hn         1 TF2       0.338500
     44 H13          3.3080     1.2530     2.7250 ha         1 TF2       0.137500
     45 H14          2.8940    -1.2490     6.1750 ha         1 TF2       0.137500
     46 H16          4.3350    -0.0300     4.5770 ha         1 TF2       0.135000
     47 H191        -1.0770     1.6630    -4.6620 hc         1 TF2       0.063700
     48 H192         0.0650     2.8430    -4.0210 hc         1 TF2       0.063700
     49 H193         0.1100     2.4010    -5.7250 hc         1 TF2       0.063700
     50 H4           2.8370     1.1740    -3.9290 ho         1 TF2       0.451000
@<TRIPOS>BOND
     1     1     2 1   
     2     1     3 ar  
     3     1     4 ar  
     4     2     5 1   
     5     2     6 2   
     6     2     7 2   
     7     3     8 ar  
     8     3    30 1   
     9     4     9 ar  
    10     4    31 1   
    11     5    10 1   
    12     5    11 1   
    13     8    12 ar  
    14     8    13 1   
    15     9    12 ar  
    16     9    32 1   
    17    10    14 ar  
    18    10    15 ar  
    19    11    16 1   
    20    11    33 1   
    21    11    34 1   
    22    12    17 1   
    23    13    35 1   
    24    13    36 1   
    25    13    37 1   
    26    14    18 ar  
    27    14    38 1   
    28    15    19 ar  
    29    15    39 1   
    30    16    40 1   
    31    16    41 1   
    32    16    42 1   
    33    17    20 1   
    34    17    43 1   
    35    18    21 ar  
    36    18    44 1   
    37    19    21 ar  
    38    19    45 1   
    39    20    22 1   
    40    20    23 2   
    41    21    46 1   
    42    22    24 1   
    43    22    25 1   
    44    22    26 1   
    45    24    27 1   
    46    24    28 1   
    47    24    29 1   
    48    25    47 1   
    49    25    48 1   
    50    25    49 1   
    51    26    50 1   
@<TRIPOS>SUBSTRUCTURE
     1 TF2         1 TEMP              0 ****  ****    0 ROOT
