@<TRIPOS>MOLECULE
TF2
   50    51     1     0     0
SMALL
No Charge or Current Charge


@<TRIPOS>ATOM
      1 C1          -1.3180    -0.8230     1.6220 ca         1 TF2      -0.315500
      2 S1          -1.8640    -1.2390     3.2860 sy         1 TF2       1.156600
      3 C2          -2.0270     0.1290     0.8670 ca         1 TF2       0.000000
      4 C3          -0.1640    -1.4210     1.0850 ca         1 TF2       0.009000
      5 N1          -1.1210     0.0320     4.1530 nh         1 TF2      -0.739300
      6 O1          -1.2270    -2.4910     3.7100 o          1 TF2      -0.530000
      7 O2          -3.3170    -1.0470     3.3730 o          1 TF2      -0.530000
      8 C4          -1.5870     0.4890    -0.4220 ca         1 TF2      -0.131300
      9 C5           0.2770    -1.0660    -0.1990 ca         1 TF2      -0.130000
     10 C6           0.2710     0.1650     3.9830 ca         1 TF2       0.222000
     11 C7          -1.9620     1.1710     4.5740 c3         1 TF2       0.204800
     12 C8          -0.4200    -0.1040    -0.9620 ca         1 TF2       0.011000
     13 C9          -2.3780     1.5310    -1.2130 c3         1 TF2      -0.051800
     14 C10          0.7980     1.1520     3.1260 ca         1 TF2      -0.094000
     15 C11          1.1570    -0.6870     4.6700 ca         1 TF2      -0.094000
     16 C12         -1.3110     2.0910     5.6250 c3         1 TF2      -0.091100
     17 N2          -0.0080     0.2790    -2.2690 ns         1 TF2      -0.138000
     18 C13          2.1870     1.2780     2.9490 ca         1 TF2      -0.105500
     19 C14          2.5470    -0.5630     4.4970 ca         1 TF2      -0.105500
     20 C15          1.1780     0.0840    -2.9710 c          1 TF2       0.575100
     21 C16          3.0620     0.4200     3.6350 ca         1 TF2      -0.101000
     22 C17          1.2220     0.6700    -4.4310 c3         1 TF2       0.052000
     23 O3           2.1740    -0.4340    -2.4750 o          1 TF2      -0.565100
     24 C18          1.0370    -0.5250    -5.4310 c3         1 TF2       0.280000
     25 C19          0.1440     1.7720    -4.6740 c3         1 TF2      -0.102100
     26 O4           2.5080     1.3110    -4.6680 oh         1 TF2      -0.628000
     27 F1           1.0460    -0.1020    -6.7180 f          1 TF2      -0.107333
     28 F2           2.0240    -1.4420    -5.3000 f          1 TF2      -0.107333
     29 F3          -0.1400    -1.1600    -5.2190 f          1 TF2      -0.107333
     30 H2          -2.9160     0.5980     1.2850 ha         1 TF2       0.135000
     31 H3           0.3990    -2.1560     1.6590 ha         1 TF2       0.147000
     32 H5           1.1630    -1.5590    -0.5850 ha         1 TF2       0.143000
     33 H7C1        -2.8940     0.7960     5.0170 h1         1 TF2       0.050700
     34 H7C2        -2.2360     1.7720     3.6960 h1         1 TF2       0.050700
     35 H9C1        -2.7810     1.1020    -2.1390 hc         1 TF2       0.046700
     36 H9C2        -3.2280     1.9200    -0.6390 hc         1 TF2       0.046700
     37 H9C3        -1.7480     2.3870    -1.4810 hc         1 TF2       0.046700
     38 H10          0.1250     1.8120     2.5860 ha         1 TF2       0.126000
     39 H11          0.7620    -1.4460     5.3400 ha         1 TF2       0.126000
     40 H121        -2.0210     2.8650     5.9390 hc         1 TF2       0.045700
     41 H122        -1.0160     1.5160     6.5100 hc         1 TF2       0.045700
     42 H123        -0.4240     2.5910     5.2200 hc         1 TF2       0.045700
     43 HA          -0.7190     0.7770    -2.7860 hn         1 TF2       0.172000
     44 H13          2.5830     2.0390     2.2800 ha         1 TF2       0.119500
     45 H14          3.2230    -1.2270     5.0320 ha         1 TF2       0.119500
     46 H16          4.1370     0.5160     3.5000 ha         1 TF2       0.117000
     47 H191        -0.8740     1.3680    -4.6210 hc         1 TF2       0.063700
     48 H192         0.2360     2.5790    -3.9350 hc         1 TF2       0.063700
     49 H193         0.2660     2.2230    -5.6670 hc         1 TF2       0.063700
     50 H4           3.2000     0.7480    -4.2460 ho         1 TF2       0.490000
@<TRIPOS>BOND
     1     1     2 1   
     2     1     3 ar  
     3     1     4 ar  
     4     2     5 1   
     5     2     6 2   
     6     2     7 2   
     7     3     8 ar  
     8     3    30 1   
     9     4     9 ar  
    10     4    31 1   
    11     5    10 1   
    12     5    11 1   
    13     8    12 ar  
    14     8    13 1   
    15     9    12 ar  
    16     9    32 1   
    17    10    14 ar  
    18    10    15 ar  
    19    11    16 1   
    20    11    33 1   
    21    11    34 1   
    22    12    17 1   
    23    13    35 1   
    24    13    36 1   
    25    13    37 1   
    26    14    18 ar  
    27    14    38 1   
    28    15    19 ar  
    29    15    39 1   
    30    16    40 1   
    31    16    41 1   
    32    16    42 1   
    33    17    20 1   
    34    17    43 1   
    35    18    21 ar  
    36    18    44 1   
    37    19    21 ar  
    38    19    45 1   
    39    20    22 1   
    40    20    23 2   
    41    21    46 1   
    42    22    24 1   
    43    22    25 1   
    44    22    26 1   
    45    24    27 1   
    46    24    28 1   
    47    24    29 1   
    48    25    47 1   
    49    25    48 1   
    50    25    49 1   
    51    26    50 1   
@<TRIPOS>SUBSTRUCTURE
     1 TF2         1 TEMP              0 ****  ****    0 ROOT
