@<TRIPOS>MOLECULE
TF3
   50    51     1     0     0
SMALL
No Charge or Current Charge


@<TRIPOS>ATOM
      1 C1          -0.1520    -0.1360    -0.9110 ca         1 TF3       0.158100
      2 C2          -0.9060     0.9490    -0.4140 ca         1 TF3       0.077000
      3 C3          -0.7900    -1.1120    -1.7090 ca         1 TF3      -0.197000
      4 O1           1.1930    -0.2090    -0.5960 os         1 TF3      -0.325100
      5 C4          -2.2750     1.0580    -0.7120 ca         1 TF3      -0.062000
      6 Cl1         -0.1500     2.1890     0.5890 cl         1 TF3      -0.186000
      7 C5          -2.1600    -0.9980    -2.0040 ca         1 TF3      -0.041000
      8 C6           2.0350    -1.2780    -1.0580 c3         1 TF3       0.212900
      9 C7          -2.9100     0.0860    -1.5090 ca         1 TF3      -0.108300
     10 C8           3.4430    -1.0430    -0.5290 ca         1 TF3      -0.101300
     11 C9          -4.3980     0.2010    -1.8280 c3         1 TF3      -0.106100
     12 C10          3.8330    -1.5730     0.7150 ca         1 TF3      -0.080500
     13 C11          4.3670    -0.2880    -1.2760 ca         1 TF3      -0.080500
     14 C12         -5.2420    -0.5480    -0.7890 c          1 TF3       0.598100
     15 C13          5.1320    -1.3550     1.2050 ca         1 TF3      -0.112500
     16 C14          5.6660    -0.0700    -0.7860 ca         1 TF3      -0.112500
     17 N1          -5.8460     0.2480     0.1600 ns         1 TF3      -0.507900
     18 O2          -5.3610    -1.7650    -0.7900 o          1 TF3      -0.597100
     19 C15          6.0610    -0.6020     0.4590 ca         1 TF3      -0.058300
     20 C16         -6.7080    -0.2460     1.2420 c3         1 TF3       0.099000
     21 C17          7.4740    -0.3700     1.0000 c3         1 TF3      -0.019400
     22 C18         -8.1050    -0.6950     0.7410 c3         1 TF3       0.125800
     23 C19          8.5440    -1.0000     0.0810 c3         1 TF3      -0.084100
     24 C20          7.7450     1.1310     1.2480 c3         1 TF3      -0.084100
     25 N2          -8.9890    -1.1480     1.8410 n8         1 TF3      -0.999200
     26 H3          -0.2450    -1.9620    -2.1090 ha         1 TF3       0.120000
     27 H4          -2.8410     1.9000    -0.3210 ha         1 TF3       0.125000
     28 H5          -2.6410    -1.7580    -2.6180 ha         1 TF3       0.120000
     29 H6C1         2.0560    -1.3070    -2.1550 h1         1 TF3       0.042700
     30 H6C2         1.6650    -2.2460    -0.6960 h1         1 TF3       0.042700
     31 H9C1        -4.6820     1.2600    -1.8400 hc         1 TF3       0.061700
     32 H9C2        -4.5960    -0.2330    -2.8150 hc         1 TF3       0.061700
     33 H10          3.1270    -2.1540     1.3060 ha         1 TF3       0.115000
     34 H11          4.0770     0.1320    -2.2370 ha         1 TF3       0.115000
     35 H13          5.4150    -1.7730     2.1680 ha         1 TF3       0.113500
     36 H14          6.3650     0.5150    -1.3790 ha         1 TF3       0.113500
     37 H1          -5.6860     1.2460     0.0890 hn         1 TF3       0.311500
     38 H161        -6.2070    -1.0880     1.7380 h1         1 TF3       0.063700
     39 H162        -6.8300     0.5560     1.9820 h1         1 TF3       0.063700
     40 H17          7.5650    -0.8680     1.9740 hc         1 TF3       0.049700
     41 H181        -8.5910     0.1480     0.2300 h1         1 TF3       0.033700
     42 H182        -7.9940    -1.5160     0.0190 h1         1 TF3       0.033700
     43 H191         9.5420    -0.8970     0.5230 hc         1 TF3       0.035533
     44 H192         8.3450    -2.0690    -0.0620 hc         1 TF3       0.035533
     45 H193         8.5550    -0.5170    -0.9030 hc         1 TF3       0.035533
     46 H201         7.7250     1.6980     0.3090 hc         1 TF3       0.035533
     47 H202         6.9880     1.5520     1.9200 hc         1 TF3       0.035533
     48 H203         8.7290     1.2740     1.7120 hc         1 TF3       0.035533
     49 H2N1        -9.8850    -1.4610     1.4440 hn         1 TF3       0.397500
     50 H2N2        -8.6010    -2.0050     2.2550 hn         1 TF3       0.397500
@<TRIPOS>BOND
     1     1     2 ar  
     2     1     3 ar  
     3     1     4 1   
     4     2     5 ar  
     5     2     6 1   
     6     3     7 ar  
     7     3    26 1   
     8     4     8 1   
     9     5     9 ar  
    10     5    27 1   
    11     7     9 ar  
    12     7    28 1   
    13     8    10 1   
    14     8    29 1   
    15     8    30 1   
    16     9    11 1   
    17    10    12 ar  
    18    10    13 ar  
    19    11    14 1   
    20    11    31 1   
    21    11    32 1   
    22    12    15 ar  
    23    12    33 1   
    24    13    16 ar  
    25    13    34 1   
    26    14    17 1   
    27    14    18 2   
    28    15    19 ar  
    29    15    35 1   
    30    16    19 ar  
    31    16    36 1   
    32    17    20 1   
    33    17    37 1   
    34    19    21 1   
    35    20    22 1   
    36    20    38 1   
    37    20    39 1   
    38    21    23 1   
    39    21    24 1   
    40    21    40 1   
    41    22    25 1   
    42    22    41 1   
    43    22    42 1   
    44    23    43 1   
    45    23    44 1   
    46    23    45 1   
    47    24    46 1   
    48    24    47 1   
    49    24    48 1   
    50    25    49 1   
    51    25    50 1   
@<TRIPOS>SUBSTRUCTURE
     1 TF3         1 TEMP              0 ****  ****    0 ROOT
