@<TRIPOS>MOLECULE
TF3
   50    51     1     0     0
SMALL
abcg2


@<TRIPOS>ATOM
      1 C1          -0.0230    -0.1360    -0.7720 ca         1 TF3       0.158100
      2 C2          -0.7170     0.9990    -0.3410 ca         1 TF3       0.077000
      3 C3          -0.7380    -1.1130    -1.4580 ca         1 TF3      -0.197000
      4 O1           1.2860    -0.1910    -0.4900 os         1 TF3      -0.325100
      5 C4          -2.0690     1.1490    -0.5780 ca         1 TF3      -0.062000
      6 CL1          0.1490     2.2360     0.5030 cl         1 TF3      -0.186000
      7 C5          -2.0980    -0.9580    -1.6930 ca         1 TF3      -0.041000
      8 C6           2.0300    -1.3250    -0.9270 c3         1 TF3       0.212900
      9 C7          -2.7830     0.1680    -1.2610 ca         1 TF3      -0.108300
     10 C8           3.4460    -1.1230    -0.4860 ca         1 TF3      -0.101300
     11 C9          -4.2590     0.3250    -1.4810 c3         1 TF3      -0.106100
     12 C10          3.9130    -1.6940     0.6910 ca         1 TF3      -0.080500
     13 C11          4.3120    -0.3230    -1.2270 ca         1 TF3      -0.080500
     14 C12         -5.0630    -0.3350    -0.3700 c          1 TF3       0.598100
     15 C13          5.2160    -1.4720     1.1170 ca         1 TF3      -0.112500
     16 C14          5.6110    -0.1010    -0.7990 ca         1 TF3      -0.112500
     17 N1          -6.1070     0.3790     0.0760 ns         1 TF3      -0.507900
     18 O2          -4.7680    -1.4400     0.0610 o          1 TF3      -0.597100
     19 C15          6.0860    -0.6720     0.3830 ca         1 TF3      -0.058300
     20 C16         -7.0490    -0.1070     1.0590 c3         1 TF3       0.099000
     21 C17          7.4980    -0.4260     0.8580 c3         1 TF3      -0.019400
     22 C18         -8.2010    -0.8870     0.4350 c3         1 TF3       0.125800
     23 C19          8.5320    -0.8910    -0.1670 c3         1 TF3      -0.084100
     24 C20          7.7100     1.0450     1.2170 c3         1 TF3      -0.084100
     25 N2          -9.1200    -1.3160     1.4760 n8         1 TF3      -0.999200
     26 H3          -0.2460    -2.0060    -1.8210 ha         1 TF3       0.120000
     27 H4          -2.5710     2.0420    -0.2270 ha         1 TF3       0.125000
     28 H5          -2.6240    -1.7350    -2.2330 ha         1 TF3       0.120000
     29 H6C1         1.9700    -1.4140    -2.0170 h1         1 TF3       0.042700
     30 H6C2         1.6170    -2.2410    -0.4920 h1         1 TF3       0.042700
     31 H9C1        -4.5210     1.3790    -1.5850 hc         1 TF3       0.061700
     32 H9C2        -4.5530    -0.1620    -2.4150 hc         1 TF3       0.061700
     33 H10          3.2560    -2.3220     1.2820 ha         1 TF3       0.115000
     34 H11          3.9710     0.1290    -2.1510 ha         1 TF3       0.115000
     35 H13          5.5590    -1.9290     2.0380 ha         1 TF3       0.113500
     36 H14          6.2610     0.5270    -1.3970 ha         1 TF3       0.113500
     37 H1          -6.2970     1.2720    -0.3470 hn         1 TF3       0.311500
     38 H161        -6.5180    -0.7320     1.7780 h1         1 TF3       0.063700
     39 H162        -7.4430     0.7510     1.6050 h1         1 TF3       0.063700
     40 H17          7.6440    -1.0160     1.7680 hc         1 TF3       0.049700
     41 H181        -8.7390    -0.2310    -0.2530 h1         1 TF3       0.033700
     42 H182        -7.7900    -1.7080    -0.1680 h1         1 TF3       0.033700
     43 H191         9.5410    -0.7810     0.2340 hc         1 TF3       0.035533
     44 H192         8.3900    -1.9400    -0.4310 hc         1 TF3       0.035533
     45 H193         8.4810    -0.3040    -1.0860 hc         1 TF3       0.035533
     46 H201         7.5890     1.6860     0.3420 hc         1 TF3       0.035533
     47 H202         7.0020     1.3770     1.9770 hc         1 TF3       0.035533
     48 H203         8.7170     1.2030     1.6050 hc         1 TF3       0.035533
     49 H2N1        -9.9420    -1.7270     1.0530 hn         1 TF3       0.397500
     50 H2N2        -8.6940    -2.0570     2.0190 hn         1 TF3       0.397500
@<TRIPOS>BOND
     1     1     2 ar  
     2     1     3 ar  
     3     1     4 1   
     4     2     5 ar  
     5     2     6 1   
     6     3     7 ar  
     7     3    26 1   
     8     4     8 1   
     9     5     9 ar  
    10     5    27 1   
    11     7     9 ar  
    12     7    28 1   
    13     8    10 1   
    14     8    29 1   
    15     8    30 1   
    16     9    11 1   
    17    10    12 ar  
    18    10    13 ar  
    19    11    14 1   
    20    11    31 1   
    21    11    32 1   
    22    12    15 ar  
    23    12    33 1   
    24    13    16 ar  
    25    13    34 1   
    26    14    17 1   
    27    14    18 2   
    28    15    19 ar  
    29    15    35 1   
    30    16    19 ar  
    31    16    36 1   
    32    17    20 1   
    33    17    37 1   
    34    19    21 1   
    35    20    22 1   
    36    20    38 1   
    37    20    39 1   
    38    21    23 1   
    39    21    24 1   
    40    21    40 1   
    41    22    25 1   
    42    22    41 1   
    43    22    42 1   
    44    23    43 1   
    45    23    44 1   
    46    23    45 1   
    47    24    46 1   
    48    24    47 1   
    49    24    48 1   
    50    25    49 1   
    51    25    50 1   
@<TRIPOS>SUBSTRUCTURE
     1 TF3         1 TEMP              0 ****  ****    0 ROOT
