@<TRIPOS>MOLECULE
TF4
    7     6     1     0     0
SMALL
bcc


@<TRIPOS>ATOM
      1 C1          -0.2040    -0.1230    -0.5210 c3         1 TF4       0.061100
      2 C            1.1630     0.4720    -0.0600 c          1 TF4       0.944600
      3 O            1.1400     1.5630     0.5130 o          1 TF4      -0.790300
      4 CL1         -0.4240    -1.7480     0.1940 cl         1 TF4      -0.241400
      5 CL2         -1.5990     0.8920    -0.1000 cl         1 TF4      -0.241400
      6 O2           2.1230    -0.2480    -0.3660 o          1 TF4      -0.790300
      7 H1          -0.2220    -0.2570    -1.6020 h2         1 TF4       0.058700
@<TRIPOS>BOND
     1     1     2 1   
     2     1     4 1   
     3     1     5 1   
     4     1     7 1   
     5     2     3 1   
     6     2     6 1   
@<TRIPOS>SUBSTRUCTURE
     1 TF4         1 TEMP              0 ****  ****    0 ROOT
