@<TRIPOS>MOLECULE
TF4
    7     6     1     0     0
SMALL
No Charge or Current Charge


@<TRIPOS>ATOM
      1 C1          -0.1920    -0.1850    -0.4970 c3         1 TF4       0.214300
      2 C            1.1730     0.4600    -0.0820 c          1 TF4       0.734000
      3 O            1.2510     1.0470     0.9940 o          1 TF4      -0.685000
      4 Cl1         -0.7560    -1.4990     0.6480 cl         1 TF4      -0.318000
      5 Cl2         -1.5490     1.0340    -0.6760 cl         1 TF4      -0.318000
      6 O2           2.1230     0.3550    -0.8520 o          1 TF4      -0.685000
      7 H1          -0.0740    -0.6600    -1.4770 h2         1 TF4       0.058700
@<TRIPOS>BOND
     1     1     2 1   
     2     1     4 1   
     3     1     5 1   
     4     1     7 1   
     5     2     3 1   
     6     2     6 1   
@<TRIPOS>SUBSTRUCTURE
     1 TF4         1 TEMP              0 ****  ****    0 ROOT
