@<TRIPOS>MOLECULE
TF5
   30    31     1     0     0
SMALL
abcg2


@<TRIPOS>ATOM
      1 C10          5.1050    -4.5290     3.2950 ca         1 TF5      -0.146000
      2 C17          2.1120     0.2380     6.1350 c3         1 TF5       0.162600
      3 C16          1.4930     0.1450     4.7590 c3         1 TF5       0.119600
      4 C8           6.0580    -2.4460     4.0080 ca         1 TF5       0.083000
      5 C7           5.0420    -1.7670     3.3620 ca         1 TF5       0.174000
      6 C5           0.8910    -0.4260     0.6230 ca         1 TF5      -0.059000
      7 C4           1.0500    -0.2220     1.9880 ca         1 TF5      -0.199000
      8 C3           2.0830    -0.8580     2.6700 ca         1 TF5       0.173100
      9 C2           2.9590    -1.7070     1.9760 cp         1 TF5      -0.085000
     10 C            1.7480    -1.2630    -0.0720 ca         1 TF5      -0.150000
     11 F13          7.0130    -1.7720     4.6470 f          1 TF5      -0.145000
     12 F            5.0720    -0.4320     3.3920 f          1 TF5      -0.153000
     13 C9           6.0820    -3.8280     3.9690 ca         1 TF5       0.159000
     14 F14          7.0740    -4.4640     4.5950 f          1 TF5      -0.156000
     15 C11          4.0910    -3.8270     2.6610 ca         1 TF5      -0.069000
     16 C6           4.0330    -2.4350     2.6850 cp         1 TF5      -0.045000
     17 C1           2.7740    -1.9000     0.6130 ca         1 TF5      -0.056000
     18 O20          3.3620     0.8860     6.1370 oh         1 TF5      -0.654000
     19 H10          5.1340    -5.6100     3.2720 ha         1 TF5       0.140000
     20 H171         2.1700    -0.7650     6.5770 h1         1 TF5       0.052700
     21 H172         1.4430     0.8270     6.7630 h1         1 TF5       0.052700
     22 H161         1.4560     1.1370     4.2980 h1         1 TF5       0.047200
     23 H162         0.4690    -0.2340     4.8370 h1         1 TF5       0.047200
     24 H5           0.0840     0.0770     0.1060 ha         1 TF5       0.115000
     25 H4           0.3550     0.4250     2.5060 ha         1 TF5       0.121000
     26 H            1.6240    -1.4220    -1.1350 ha         1 TF5       0.120000
     27 H11          3.3160    -4.3740     2.1430 ha         1 TF5       0.129000
     28 H1           3.4540    -2.5530     0.0800 ha         1 TF5       0.118000
     29 HO20         3.9610     0.3940     5.5680 ho         1 TF5       0.458000
     30 O            2.2980    -0.7380     3.9910 os         1 TF5      -0.355100
@<TRIPOS>BOND
     1     1    13 ar  
     2     1    15 ar  
     3     1    19 1   
     4     2     3 1   
     5     2    18 1   
     6     2    20 1   
     7     2    21 1   
     8     3    22 1   
     9     3    23 1   
    10     3    30 1   
    11     4     5 ar  
    12     4    11 1   
    13     4    13 ar  
    14     5    12 1   
    15     5    16 ar  
    16     6     7 ar  
    17     6    10 ar  
    18     6    24 1   
    19     7     8 ar  
    20     7    25 1   
    21     8     9 ar  
    22     8    30 1   
    23     9    16 1   
    24     9    17 ar  
    25    10    17 ar  
    26    10    26 1   
    27    13    14 1   
    28    15    16 ar  
    29    15    27 1   
    30    17    28 1   
    31    18    29 1   
@<TRIPOS>SUBSTRUCTURE
     1 TF5         1 TEMP              0 ****  ****    0 ROOT
