@<TRIPOS>MOLECULE
TF5
   30    31     1     0     0
SMALL
No Charge or Current Charge


@<TRIPOS>ATOM
      1 C10          5.1620    -4.5370     3.3050 ca         1 TF5      -0.146000
      2 C17          2.0340     0.2380     6.2380 c3         1 TF5       0.162600
      3 C16          1.4750     0.2410     4.7970 c3         1 TF5       0.119600
      4 C8           6.1450    -2.4220     4.0040 ca         1 TF5       0.083000
      5 C7           5.1100    -1.7250     3.3540 ca         1 TF5       0.174000
      6 C5           0.8560    -0.4140     0.5810 ca         1 TF5      -0.059000
      7 C4           1.0470    -0.1680     1.9500 ca         1 TF5      -0.199000
      8 C3           2.0930    -0.8150     2.6450 ca         1 TF5       0.173100
      9 C2           2.9630    -1.7140     1.9710 cp         1 TF5      -0.085000
     10 C            1.7000    -1.3080    -0.0950 ca         1 TF5      -0.150000
     11 F13          7.1240    -1.7400     4.6480 f          1 TF5      -0.145000
     12 F            5.1250    -0.3710     3.3620 f          1 TF5      -0.153000
     13 C9           6.1670    -3.8280     3.9800 ca         1 TF5       0.159000
     14 F14          7.1580    -4.5060     4.6020 f          1 TF5      -0.156000
     15 C11          4.1280    -3.8410     2.6540 ca         1 TF5      -0.069000
     16 C6           4.0760    -2.4250     2.6740 cp         1 TF5      -0.045000
     17 C1           2.7400    -1.9540     0.5930 ca         1 TF5      -0.056000
     18 O20          3.4370     0.5500     6.2240 oh         1 TF5      -0.654000
     19 H10          5.1860    -5.6240     3.2860 ha         1 TF5       0.140000
     20 H171         1.8680    -0.7550     6.6770 h1         1 TF5       0.052700
     21 H172         1.4790     0.9670     6.8430 h1         1 TF5       0.052700
     22 H161         1.4960     1.2660     4.4050 h1         1 TF5       0.047200
     23 H162         0.4340    -0.1080     4.8090 h1         1 TF5       0.047200
     24 H5           0.0500     0.0840     0.0440 ha         1 TF5       0.115000
     25 H4           0.3750     0.5200     2.4530 ha         1 TF5       0.121000
     26 H            1.5490    -1.5020    -1.1550 ha         1 TF5       0.120000
     27 H11          3.3510    -4.4010     2.1370 ha         1 TF5       0.129000
     28 H1           3.3880    -2.6430     0.0550 ha         1 TF5       0.118000
     29 HO20         3.7900     0.1230     5.4110 ho         1 TF5       0.458000
     30 O            2.3020    -0.6300     3.9980 os         1 TF5      -0.355100
@<TRIPOS>BOND
     1     1    13 ar  
     2     1    15 ar  
     3     1    19 1   
     4     2     3 1   
     5     2    18 1   
     6     2    20 1   
     7     2    21 1   
     8     3    22 1   
     9     3    23 1   
    10     3    30 1   
    11     4     5 ar  
    12     4    11 1   
    13     4    13 ar  
    14     5    12 1   
    15     5    16 ar  
    16     6     7 ar  
    17     6    10 ar  
    18     6    24 1   
    19     7     8 ar  
    20     7    25 1   
    21     8     9 ar  
    22     8    30 1   
    23     9    16 1   
    24     9    17 ar  
    25    10    17 ar  
    26    10    26 1   
    27    13    14 1   
    28    15    16 ar  
    29    15    27 1   
    30    17    28 1   
    31    18    29 1   
@<TRIPOS>SUBSTRUCTURE
     1 TF5         1 TEMP              0 ****  ****    0 ROOT
