@<TRIPOS>MOLECULE
TF7
   29    29     1     0     0
SMALL
No Charge or Current Charge


@<TRIPOS>ATOM
      1 S1           0.4960    -1.2520    -0.4700 s6         1 TF7       0.266600
      2 C2           0.5420     0.5370    -0.0310 c3         1 TF7      -0.257000
      3 C3           1.9070     0.8390     0.7050 c3         1 TF7       0.056500
      4 N4           2.0280     0.0230     1.9660 n8         1 TF7      -1.023200
      5 C9           3.1980     0.8280    -0.2430 c          1 TF7       0.721000
      6 O10          3.7290    -0.2460    -0.5050 o          1 TF7      -0.720000
      7 O11          3.6970     1.9040    -0.5510 o          1 TF7      -0.720000
      8 O12          0.0760    -1.6340    -2.0130 oh         1 TF7      -0.669700
      9 O13         -0.4200    -2.2170     0.4960 oh         1 TF7      -0.669700
     10 C14         -0.6630     0.9720     0.9020 c3         1 TF7       0.095600
     11 N15         -2.0220     0.4510     0.6120 na         1 TF7       0.132800
     12 N16         -2.4810     0.2790    -0.6600 nc         1 TF7      -0.200800
     13 N17         -3.6690    -0.2510    -0.5640 nd         1 TF7      -0.385000
     14 C18         -3.9920    -0.4070     0.7660 cd         1 TF7       0.165900
     15 C19         -2.9490     0.0290     1.5310 cc         1 TF7      -0.217000
     16 C20          0.4990     1.3690    -1.3530 c3         1 TF7      -0.050100
     17 H3           1.8340     1.8840     1.0430 h1         1 TF7       0.054700
     18 HN4          1.1160    -0.0480     2.4260 hn         1 TF7       0.390500
     19 HN4A         2.2480    -0.9450     1.7020 hn         1 TF7       0.390500
     20 HO12        -0.7600    -1.1820    -2.2580 ho         1 TF7       0.448000
     21 HO13        -1.3430    -1.8870     0.5230 ho         1 TF7       0.448000
     22 H14         -0.4510     0.6750     1.9350 h1         1 TF7       0.053700
     23 H14A        -0.7250     2.0680     0.9120 h1         1 TF7       0.053700
     24 H18         -4.9380    -0.8250     1.0870 h4         1 TF7       0.036100
     25 H19         -2.8060     0.0710     2.6030 h4         1 TF7       0.172000
     26 H20         -0.4460     1.2560    -1.8950 hc         1 TF7       0.033367
     27 H20A         0.6250     2.4380    -1.1410 hc         1 TF7       0.033367
     28 H20B         1.2950     1.0710    -2.0460 hc         1 TF7       0.033367
     29 HS1         -0.7200    -0.6060    -0.5930 hs         1 TF7       0.327800
@<TRIPOS>BOND
     1     1     2 1   
     2     1     8 1   
     3     1     9 1   
     4     1    29 1   
     5     2     3 1   
     6     2    10 1   
     7     2    16 1   
     8     3     4 1   
     9     3     5 1   
    10     3    17 1   
    11     4    18 1   
    12     4    19 1   
    13     5     6 1   
    14     5     7 1   
    15     8    20 1   
    16     9    21 1   
    17    10    11 1   
    18    10    22 1   
    19    10    23 1   
    20    11    12 1   
    21    11    15 1   
    22    12    13 2   
    23    13    14 1   
    24    14    15 2   
    25    14    24 1   
    26    15    25 1   
    27    16    26 1   
    28    16    27 1   
    29    16    28 1   
@<TRIPOS>SUBSTRUCTURE
     1 TF7         1 TEMP              0 ****  ****    0 ROOT
