@<TRIPOS>MOLECULE
TF7
   29    29     1     0     0
SMALL
abcg2


@<TRIPOS>ATOM
      1 S1           0.7670    -1.4290    -0.0800 s6         1 TF7       0.266600
      2 C2           0.3840     0.4670    -0.0090 c3         1 TF7      -0.257000
      3 C3           1.6870     1.1310     0.5540 c3         1 TF7       0.056500
      4 N4           1.9680     0.9310     1.9650 n8         1 TF7      -1.023200
      5 C9           2.9330     0.6740    -0.2440 c          1 TF7       0.721000
      6 O10          3.4420    -0.4040     0.1350 o          1 TF7      -0.720000
      7 O11          3.3150     1.3880    -1.1860 o          1 TF7      -0.720000
      8 O12         -0.8120    -1.8230    -0.4270 oh         1 TF7      -0.669700
      9 O13          0.9310    -3.2580     0.3160 oh         1 TF7      -0.669700
     10 C14         -0.7420     0.8500     0.9690 c3         1 TF7       0.095600
     11 N15         -2.1070     0.7940     0.4750 na         1 TF7       0.132800
     12 N16         -2.6050     1.8000    -0.2270 nc         1 TF7      -0.200800
     13 N17         -3.8360     1.5330    -0.4940 nd         1 TF7      -0.385000
     14 C18         -4.1550     0.3400     0.0510 cd         1 TF7       0.165900
     15 C19         -3.0460    -0.1470     0.6870 cc         1 TF7      -0.217000
     16 C20          0.1380     0.9650    -1.4250 c3         1 TF7      -0.050100
     17 H3           1.5480     2.2070     0.3960 h1         1 TF7       0.054700
     18 HN4          1.1810     1.1280     2.5670 hn         1 TF7       0.390500
     19 HN4A         2.2960    -0.0060     2.1490 hn         1 TF7       0.390500
     20 HO12        -1.1840    -1.1300    -0.9910 ho         1 TF7       0.448000
     21 HO13         0.9550    -3.7360    -0.5210 ho         1 TF7       0.448000
     22 H14         -0.7150     0.2270     1.8640 h1         1 TF7       0.053700
     23 H14A        -0.5940     1.8820     1.2960 h1         1 TF7       0.053700
     24 H18         -5.1380    -0.0920    -0.0320 h4         1 TF7       0.036100
     25 H19         -2.8650    -1.0430     1.2540 h4         1 TF7       0.172000
     26 H20         -0.8000     0.6110    -1.8610 hc         1 TF7       0.033367
     27 H20A         0.0940     2.0560    -1.4560 hc         1 TF7       0.033367
     28 H20B         0.9400     0.6520    -2.0910 hc         1 TF7       0.033367
     29 HS1          0.9240    -1.3730     1.2530 hs         1 TF7       0.327800
@<TRIPOS>BOND
     1     1     2 1   
     2     1     8 1   
     3     1     9 1   
     4     1    29 1   
     5     2     3 1   
     6     2    10 1   
     7     2    16 1   
     8     3     4 1   
     9     3     5 1   
    10     3    17 1   
    11     4    18 1   
    12     4    19 1   
    13     5     6 1   
    14     5     7 1   
    15     8    20 1   
    16     9    21 1   
    17    10    11 1   
    18    10    22 1   
    19    10    23 1   
    20    11    12 1   
    21    11    15 1   
    22    12    13 2   
    23    13    14 1   
    24    14    15 2   
    25    14    24 1   
    26    15    25 1   
    27    16    26 1   
    28    16    27 1   
    29    16    28 1   
@<TRIPOS>SUBSTRUCTURE
     1 TF7         1 TEMP              0 ****  ****    0 ROOT
