@<TRIPOS>MOLECULE
TF8
   23    22     1     0     0
SMALL
No Charge or Current Charge


@<TRIPOS>ATOM
      1 C01         61.6780    -2.7350     3.5280 c          1 TF8       0.699000
      2 C02         60.9260    -3.9230     4.2390 c3         1 TF8       0.027300
      3 C03         59.6510    -3.3880     4.9570 c3         1 TF8       0.174300
      4 C04         59.1900    -4.2880     6.1560 c3         1 TF8       0.149300
      5 C05         57.8660    -3.8420     6.8570 c3         1 TF8       0.122300
      6 C06         57.8490    -2.3720     7.3400 c3         1 TF8      -0.123100
      7 O07         61.4130    -2.4690     2.3610 o          1 TF8      -0.722000
      8 O08         60.5350    -5.0180     3.3540 oh         1 TF8      -0.765000
      9 O09         58.5970    -3.2740     3.9690 oh         1 TF8      -0.699000
     10 O10         60.1960    -4.3600     7.1810 oh         1 TF8      -0.712000
     11 O11         57.6550    -4.6850     8.0040 oh         1 TF8      -0.739000
     12 O12         62.5860    -2.1860     4.1400 o          1 TF8      -0.722000
     13 H021        61.6220    -4.2990     5.0000 h1         1 TF8       0.050700
     14 H031        59.8930    -2.3940     5.3610 h1         1 TF8       0.049700
     15 H041        59.0130    -5.2960     5.7540 h1         1 TF8       0.064700
     16 H051        57.0410    -3.9760     6.1430 h1         1 TF8       0.036700
     17 H063        56.9060    -2.1450     7.8520 hc         1 TF8       0.037700
     18 H061        58.6720    -2.1720     8.0370 hc         1 TF8       0.037700
     19 H062        57.9380    -1.6780     6.4960 hc         1 TF8       0.037700
     20 H081        59.6650    -4.7030     2.9960 ho         1 TF8       0.536000
     21 H091        58.0230    -2.5210     4.2360 ho         1 TF8       0.471000
     22 H101        59.6560    -4.5820     7.9800 ho         1 TF8       0.497000
     23 H111        56.7380    -4.5160     8.3250 ho         1 TF8       0.490000
@<TRIPOS>BOND
     1     1     2 1   
     2     1     7 1   
     3     1    12 1   
     4     2     3 1   
     5     2     8 1   
     6     2    13 1   
     7     3     4 1   
     8     3     9 1   
     9     3    14 1   
    10     4     5 1   
    11     4    10 1   
    12     4    15 1   
    13     5     6 1   
    14     5    11 1   
    15     5    16 1   
    16     6    17 1   
    17     6    18 1   
    18     6    19 1   
    19     8    20 1   
    20     9    21 1   
    21    10    22 1   
    22    11    23 1   
@<TRIPOS>SUBSTRUCTURE
     1 TF8         1 TEMP              0 ****  ****    0 ROOT
