@<TRIPOS>MOLECULE
TF8
   23    22     1     0     0
SMALL
abcg2


@<TRIPOS>ATOM
      1 C01         61.3540    -2.8490     3.2980 c          1 TF8       0.699000
      2 C02         60.8620    -3.8580     4.3640 c3         1 TF8       0.027300
      3 C03         59.6200    -3.3090     5.0610 c3         1 TF8       0.174300
      4 C04         59.0810    -4.2580     6.1350 c3         1 TF8       0.149300
      5 C05         57.8060    -3.7430     6.8160 c3         1 TF8       0.122300
      6 C06         57.9710    -2.4000     7.5110 c3         1 TF8      -0.123100
      7 O07         61.4010    -3.3070     2.1330 o          1 TF8      -0.722000
      8 O08         60.6140    -5.0950     3.7500 oh         1 TF8      -0.765000
      9 O09         58.6340    -3.0790     4.0710 oh         1 TF8      -0.699000
     10 O10         60.1110    -4.4530     7.0780 oh         1 TF8      -0.712000
     11 O11         57.4470    -4.7600     7.7390 oh         1 TF8      -0.739000
     12 O12         61.6610    -1.7100     3.6790 o          1 TF8      -0.722000
     13 H021        61.6540    -3.9600     5.1180 h1         1 TF8       0.050700
     14 H031        59.9220    -2.3720     5.5440 h1         1 TF8       0.049700
     15 H041        58.8160    -5.2080     5.6470 h1         1 TF8       0.064700
     16 H051        57.0280    -3.6470     6.0480 h1         1 TF8       0.036700
     17 H063        57.0590    -2.1350     8.0500 hc         1 TF8       0.037700
     18 H061        58.7950    -2.4130     8.2250 hc         1 TF8       0.037700
     19 H062        58.1560    -1.5970     6.7960 hc         1 TF8       0.037700
     20 H081        60.7840    -4.8850     2.8110 ho         1 TF8       0.536000
     21 H091        58.0860    -2.3390     4.3430 ho         1 TF8       0.471000
     22 H101        59.7550    -4.9910     7.7930 ho         1 TF8       0.497000
     23 H111        56.6950    -4.4550     8.2550 ho         1 TF8       0.490000
@<TRIPOS>BOND
     1     1     2 1   
     2     1     7 1   
     3     1    12 1   
     4     2     3 1   
     5     2     8 1   
     6     2    13 1   
     7     3     4 1   
     8     3     9 1   
     9     3    14 1   
    10     4     5 1   
    11     4    10 1   
    12     4    15 1   
    13     5     6 1   
    14     5    11 1   
    15     5    16 1   
    16     6    17 1   
    17     6    18 1   
    18     6    19 1   
    19     8    20 1   
    20     9    21 1   
    21    10    22 1   
    22    11    23 1   
@<TRIPOS>SUBSTRUCTURE
     1 TF8         1 TEMP              0 ****  ****    0 ROOT
