@<TRIPOS>MOLECULE
TF9
   42    43     1     0     0
SMALL
abcg2


@<TRIPOS>ATOM
      1 N1          16.8330     5.8280    12.1840 ns         1 TF9      -0.597300
      2 C4          15.1140     4.2250    16.0440 ca         1 TF9      -0.089500
      3 C5          15.2770     5.0790    14.9700 ca         1 TF9      -0.019500
      4 C6          16.4600     5.8010    14.8580 ca         1 TF9      -0.267500
      5 C7          17.4660     5.6950    15.8010 ca         1 TF9      -0.019500
      6 C8          17.2850     4.8410    16.8790 ca         1 TF9      -0.089500
      7 C10         16.5510     3.6290    10.3790 c6         1 TF9       0.118700
      8 C13         15.4810     0.8390     9.8230 c6         1 TF9      -0.077400
      9 C15         15.4430     2.9430    11.2000 c6         1 TF9      -0.091900
     10 C1          16.9870     3.0270    19.1800 c3         1 TF9      -0.196100
     11 O1          14.8700     2.5240    18.2280 o          1 TF9      -0.513100
     12 C3          16.1160     4.0970    17.0080 ca         1 TF9      -0.125600
     13 S1          16.6650     6.8800    13.4660 sy         1 TF9       1.195300
     14 O2          17.8700     7.6560    13.6480 o          1 TF9      -0.525000
     15 O3          15.4110     7.5570    13.1980 o          1 TF9      -0.525000
     16 C9          17.8390     4.8660    12.1520 c          1 TF9       0.674100
     17 O4          18.7530     4.9070    12.9560 o          1 TF9      -0.613100
     18 N2          17.7270     3.9400    11.1830 ns         1 TF9      -0.503900
     19 C11         16.9960     2.7480     9.1990 c6         1 TF9      -0.091900
     20 C12         15.8590     1.8500     8.7310 c6         1 TF9      -0.073900
     21 C14         15.6470     1.4350    11.2310 c6         1 TF9      -0.073900
     22 H1          16.0320     5.7960    11.5640 hn         1 TF9       0.343500
     23 H2          14.2000     3.6550    16.1340 ha         1 TF9       0.130000
     24 H3          14.4930     5.1690    14.2300 ha         1 TF9       0.140000
     25 H4          18.3820     6.2610    15.7100 ha         1 TF9       0.140000
     26 H5          18.0780     4.7630    17.6110 ha         1 TF9       0.130000
     27 H6          16.1610     4.5610     9.9610 h1         1 TF9       0.055700
     28 H7          14.4500     0.5130     9.6750 hc         1 TF9       0.043200
     29 H8          16.1030    -0.0540     9.7300 hc         1 TF9       0.043200
     30 H9          15.4140     3.3560    12.2110 hc         1 TF9       0.049950
     31 H10         14.4730     3.1730    10.7510 hc         1 TF9       0.049950
     32 H11         16.7020     2.3070    19.9440 hc         1 TF9       0.065367
     33 H12         17.9210     2.7030    18.7190 hc         1 TF9       0.065367
     34 H13         17.1840     3.9890    19.6570 hc         1 TF9       0.065367
     35 H14         18.4540     3.2400    11.2170 hn         1 TF9       0.326500
     36 H15         17.8340     2.1110     9.5030 hc         1 TF9       0.049950
     37 H16         17.3680     3.3760     8.3880 hc         1 TF9       0.049950
     38 H17         14.9950     2.4650     8.4650 hc         1 TF9       0.044950
     39 H18         16.1480     1.3280     7.8170 hc         1 TF9       0.044950
     40 H19         14.9490     0.9680    11.9270 hc         1 TF9       0.044950
     41 H20         16.6470     1.2180    11.6190 hc         1 TF9       0.044950
     42 C2          15.9000     3.1550    18.1530 c          1 TF9       0.578700
@<TRIPOS>BOND
     1     1    13 1   
     2     1    16 1   
     3     1    22 1   
     4     2     3 ar  
     5     2    12 ar  
     6     2    23 1   
     7     3     4 ar  
     8     3    24 1   
     9     4     5 ar  
    10     4    13 1   
    11     5     6 ar  
    12     5    25 1   
    13     6    12 ar  
    14     6    26 1   
    15     7     9 1   
    16     7    18 1   
    17     7    19 1   
    18     7    27 1   
    19     8    20 1   
    20     8    21 1   
    21     8    28 1   
    22     8    29 1   
    23     9    21 1   
    24     9    30 1   
    25     9    31 1   
    26    10    32 1   
    27    10    33 1   
    28    10    34 1   
    29    10    42 1   
    30    11    42 2   
    31    12    42 1   
    32    13    14 2   
    33    13    15 2   
    34    16    17 2   
    35    16    18 1   
    36    18    35 1   
    37    19    20 1   
    38    19    36 1   
    39    19    37 1   
    40    20    38 1   
    41    20    39 1   
    42    21    40 1   
    43    21    41 1   
@<TRIPOS>SUBSTRUCTURE
     1 TF9         1 TEMP              0 ****  ****    0 ROOT
