@<TRIPOS>MOLECULE
TF9
   42    43     1     0     0
SMALL
No Charge or Current Charge


@<TRIPOS>ATOM
      1 N1          16.7140     5.4520    12.3370 ns         1 TF9      -0.597300
      2 C4          15.0060     4.4430    16.6470 ca         1 TF9      -0.089500
      3 C5          15.0980     5.1470    15.4350 ca         1 TF9      -0.019500
      4 C6          16.3170     5.7390    15.0500 ca         1 TF9      -0.267500
      5 C7          17.4430     5.6120    15.8870 ca         1 TF9      -0.019500
      6 C8          17.3490     4.9070    17.1000 ca         1 TF9      -0.089500
      7 C10         16.6270     3.5060    10.2630 c6         1 TF9       0.118700
      8 C13         15.4020     0.9190     9.1020 c6         1 TF9      -0.077400
      9 C15         15.4140     2.7500    10.8970 c6         1 TF9      -0.091900
     10 C1          17.2120     3.4000    19.7230 c3         1 TF9      -0.196100
     11 O1          14.9320     3.0340    19.1320 o          1 TF9      -0.513100
     12 C3          16.1280     4.3110    17.4990 ca         1 TF9      -0.125600
     13 S1          16.4330     6.6320    13.4850 sy         1 TF9       1.195300
     14 O2          17.6270     7.4860    13.5110 o          1 TF9      -0.525000
     15 O3          15.1120     7.1740    13.1500 o          1 TF9      -0.525000
     16 C9          17.7750     4.6220    12.2540 c          1 TF9       0.674100
     17 O4          18.7320     4.6600    13.0020 o          1 TF9      -0.613100
     18 N2          17.7050     3.6980    11.2460 ns         1 TF9      -0.503900
     19 C11         17.1900     2.7530     9.0190 c6         1 TF9      -0.091900
     20 C12         16.0760     2.0210     8.2350 c6         1 TF9      -0.073900
     21 C14         15.4550     1.2270    10.6260 c6         1 TF9      -0.073900
     22 H1          15.9400     5.3440    11.7110 hn         1 TF9       0.343500
     23 H2          14.0520     3.9960    16.9210 ha         1 TF9       0.130000
     24 H3          14.2170     5.2280    14.7990 ha         1 TF9       0.140000
     25 H4          18.3970     6.0530    15.6020 ha         1 TF9       0.140000
     26 H5          18.2400     4.8320    17.7170 ha         1 TF9       0.130000
     27 H6          16.2810     4.4950     9.9300 h1         1 TF9       0.055700
     28 H7          14.3580     0.8010     8.7820 hc         1 TF9       0.043200
     29 H8          15.8880    -0.0490     8.9170 hc         1 TF9       0.043200
     30 H9          15.3600     2.9370    11.9790 hc         1 TF9       0.049950
     31 H10         14.4820     3.1550    10.4790 hc         1 TF9       0.049950
     32 H11         16.9880     2.8260    20.6300 hc         1 TF9       0.065367
     33 H12         18.0370     2.9520    19.1600 hc         1 TF9       0.065367
     34 H13         17.5970     4.3970    19.9660 hc         1 TF9       0.065367
     35 H14         18.5030     3.0780    11.1950 hn         1 TF9       0.326500
     36 H15         17.9440     2.0150     9.3290 hc         1 TF9       0.049950
     37 H16         17.7100     3.4640     8.3630 hc         1 TF9       0.049950
     38 H17         15.3210     2.7510     7.9120 hc         1 TF9       0.044950
     39 H18         16.4840     1.5760     7.3170 hc         1 TF9       0.044950
     40 H19         14.6200     0.7260    11.1360 hc         1 TF9       0.044950
     41 H20         16.3740     0.8070    11.0580 hc         1 TF9       0.044950
     42 C2          15.9980     3.5430    18.8030 c          1 TF9       0.578700
@<TRIPOS>BOND
     1     1    13 1   
     2     1    16 1   
     3     1    22 1   
     4     2     3 ar  
     5     2    12 ar  
     6     2    23 1   
     7     3     4 ar  
     8     3    24 1   
     9     4     5 ar  
    10     4    13 1   
    11     5     6 ar  
    12     5    25 1   
    13     6    12 ar  
    14     6    26 1   
    15     7     9 1   
    16     7    18 1   
    17     7    19 1   
    18     7    27 1   
    19     8    20 1   
    20     8    21 1   
    21     8    28 1   
    22     8    29 1   
    23     9    21 1   
    24     9    30 1   
    25     9    31 1   
    26    10    32 1   
    27    10    33 1   
    28    10    34 1   
    29    10    42 1   
    30    11    42 2   
    31    12    42 1   
    32    13    14 2   
    33    13    15 2   
    34    16    17 2   
    35    16    18 1   
    36    18    35 1   
    37    19    20 1   
    38    19    36 1   
    39    19    37 1   
    40    20    38 1   
    41    20    39 1   
    42    21    40 1   
    43    21    41 1   
@<TRIPOS>SUBSTRUCTURE
     1 TF9         1 TEMP              0 ****  ****    0 ROOT
