@<TRIPOS>MOLECULE
TFA
    7     6     1     0     0
SMALL
No Charge or Current Charge


@<TRIPOS>ATOM
      1 C1          42.8590    20.8120    36.2790 c          1 TFA       0.713000
      2 C2          43.3120    22.1600    35.6030 c3         1 TFA       0.095000
      3 O           43.1890    19.7520    35.7560 o          1 TFA      -0.672000
      4 F1          44.5220    22.5650    36.0650 f          1 TFA      -0.154667
      5 F2          43.4220    22.0500    34.2540 f          1 TFA      -0.154667
      6 F3          42.4410    23.1740    35.8390 f          1 TFA      -0.154667
      7 OXT         42.2180    20.8640    37.3230 o          1 TFA      -0.672000
@<TRIPOS>BOND
     1     1     2 1   
     2     1     3 1   
     3     1     7 1   
     4     2     4 1   
     5     2     5 1   
     6     2     6 1   
@<TRIPOS>SUBSTRUCTURE
     1 TFA         1 TEMP              0 ****  ****    0 ROOT
