@<TRIPOS>MOLECULE
TFA
    7     6     1     0     0
SMALL
abcg2


@<TRIPOS>ATOM
      1 C1          42.8560    20.8080    36.2910 c          1 TFA       0.713000
      2 C2          43.2940    22.1380    35.6190 c3         1 TFA       0.095000
      3 O           43.4610    19.8220    35.8570 o          1 TFA      -0.672000
      4 F1          44.5600    22.4510    35.9540 f          1 TFA      -0.154667
      5 F2          43.2630    22.0580    34.2780 f          1 TFA      -0.154667
      6 F3          42.5400    23.1920    35.9560 f          1 TFA      -0.154667
      7 OXT         41.9890    20.9080    37.1640 o          1 TFA      -0.672000
@<TRIPOS>BOND
     1     1     2 1   
     2     1     3 1   
     3     1     7 1   
     4     2     4 1   
     5     2     5 1   
     6     2     6 1   
@<TRIPOS>SUBSTRUCTURE
     1 TFA         1 TEMP              0 ****  ****    0 ROOT
