@<TRIPOS>MOLECULE
TFB
   15    15     1     0     0
SMALL
No Charge or Current Charge


@<TRIPOS>ATOM
      1 OA           1.0920     0.2960    -0.8830 os         1 TFB      -0.418000
      2 CA          -0.0360     0.5410     0.0060 c5         1 TFB       0.021300
      3 C            0.1200    -0.1370     1.4250 c          1 TFB       0.728000
      4 OXT         -0.7170     0.1080     2.2850 o          1 TFB      -0.722500
      5 CB          -1.2860    -0.0300    -0.7510 c5         1 TFB      -0.087400
      6 CG          -0.6830    -0.5990    -2.0670 c5         1 TFB      -0.118400
      7 CD           0.5760     0.2790    -2.2210 c5         1 TFB       0.145600
      8 OB           1.0860    -0.8530     1.6670 o          1 TFB      -0.722500
      9 HA          -0.1330     1.6260     0.1460 h1         1 TFB       0.012700
     10 HB1         -1.8170    -0.8030    -0.1830 hc         1 TFB       0.043200
     11 HB2         -2.0080     0.7680    -0.9560 hc         1 TFB       0.043200
     12 HG1         -0.4150    -1.6570    -1.9620 hc         1 TFB       0.023200
     13 HG2         -1.3670    -0.5120    -2.9190 hc         1 TFB       0.023200
     14 HD1          1.3190    -0.1450    -2.9100 h1         1 TFB       0.014700
     15 HD2          0.3320     1.3040    -2.5310 h1         1 TFB       0.014700
@<TRIPOS>BOND
     1     1     2 1   
     2     1     7 1   
     3     2     3 1   
     4     2     5 1   
     5     2     9 1   
     6     3     4 1   
     7     3     8 1   
     8     5     6 1   
     9     5    10 1   
    10     5    11 1   
    11     6     7 1   
    12     6    12 1   
    13     6    13 1   
    14     7    14 1   
    15     7    15 1   
@<TRIPOS>SUBSTRUCTURE
     1 TFB         1 TEMP              0 ****  ****    0 ROOT
