@<TRIPOS>MOLECULE
TFB
   15    15     1     0     0
SMALL
abcg2


@<TRIPOS>ATOM
      1 OA           1.0710     0.1080    -0.8020 os         1 TFB      -0.418000
      2 CA          -0.0500     0.4520    -0.0140 c5         1 TFB       0.021300
      3 C            0.1250     0.0610     1.4570 c          1 TFB       0.728000
      4 OXT         -0.8470     0.3580     2.1820 o          1 TFB      -0.722500
      5 CB          -1.2440    -0.2390    -0.6980 c5         1 TFB      -0.087400
      6 CG          -0.7770    -0.4120    -2.1540 c5         1 TFB      -0.118400
      7 CD           0.6380     0.1770    -2.1420 c5         1 TFB       0.145600
      8 OB           1.1770    -0.5050     1.7990 o          1 TFB      -0.722500
      9 HA          -0.2100     1.5420    -0.0630 h1         1 TFB       0.012700
     10 HB1         -1.4540    -1.2070    -0.2390 hc         1 TFB       0.043200
     11 HB2         -2.1500     0.3610    -0.6140 hc         1 TFB       0.043200
     12 HG1         -0.7600    -1.4650    -2.4370 hc         1 TFB       0.023200
     13 HG2         -1.4180     0.1050    -2.8680 hc         1 TFB       0.023200
     14 HD1          1.3450    -0.3690    -2.7690 h1         1 TFB       0.014700
     15 HD2          0.6170     1.2190    -2.4910 h1         1 TFB       0.014700
@<TRIPOS>BOND
     1     1     2 1   
     2     1     7 1   
     3     2     3 1   
     4     2     5 1   
     5     2     9 1   
     6     3     4 1   
     7     3     8 1   
     8     5     6 1   
     9     5    10 1   
    10     5    11 1   
    11     6     7 1   
    12     6    12 1   
    13     6    13 1   
    14     7    14 1   
    15     7    15 1   
@<TRIPOS>SUBSTRUCTURE
     1 TFB         1 TEMP              0 ****  ****    0 ROOT
