@<TRIPOS>MOLECULE
TFC
   35    34     1     0     0
SMALL
No Charge or Current Charge


@<TRIPOS>ATOM
      1 C1           9.3220    -0.0680     0.0970 c3         1 TFC      -0.089100
      2 C2           7.9850     0.6980     0.0980 c3         1 TFC      -0.074400
      3 C3           6.7540    -0.2330     0.0400 c3         1 TFC      -0.076400
      4 C4           5.4140     0.5340     0.0410 c3         1 TFC      -0.074400
      5 C5           4.1840    -0.3980    -0.0160 c3         1 TFC      -0.075400
      6 C6           2.8440     0.3700    -0.0160 c3         1 TFC      -0.073400
      7 C7           1.6130    -0.5610    -0.0730 c3         1 TFC      -0.067400
      8 C8           0.2790     0.2090    -0.0720 c3         1 TFC       0.053600
      9 S1          -1.1440    -0.9680    -0.1410 ss         1 TFC      -0.364000
     10 C9          -2.5630     0.2410    -0.1260 c3         1 TFC      -0.061400
     11 C10         -3.9610    -0.4180    -0.1760 c          1 TFC       0.528100
     12 O1          -4.1120    -1.6030    -0.4590 o          1 TFC      -0.419100
     13 C11         -5.1520     0.5110     0.1700 c3         1 TFC       0.203000
     14 F1          -5.1460     0.8480     1.4810 f          1 TFC      -0.101333
     15 F2          -5.1070     1.6620    -0.5430 f          1 TFC      -0.101333
     16 F3          -6.3460    -0.0740    -0.0900 f          1 TFC      -0.101333
     17 H11          9.3880    -0.7350     0.9650 hc         1 TFC       0.031700
     18 H12          9.4230    -0.6710    -0.8130 hc         1 TFC       0.031700
     19 H13         10.1640     0.6340     0.1380 hc         1 TFC       0.031700
     20 H21          7.9300     1.3180     1.0010 hc         1 TFC       0.036700
     21 H22          7.9640     1.3810    -0.7610 hc         1 TFC       0.036700
     22 H31          6.8140    -0.8530    -0.8630 hc         1 TFC       0.037700
     23 H32          6.7790    -0.9160     0.8990 hc         1 TFC       0.037700
     24 H41          5.3550     1.1540     0.9440 hc         1 TFC       0.037200
     25 H42          5.3890     1.2160    -0.8180 hc         1 TFC       0.037200
     26 H51          4.2430    -1.0180    -0.9190 hc         1 TFC       0.039700
     27 H52          4.2080    -1.0800     0.8430 hc         1 TFC       0.039700
     28 H61          2.7840     0.9910     0.8880 hc         1 TFC       0.039200
     29 H62          2.8190     1.0520    -0.8750 hc         1 TFC       0.039200
     30 H71          1.6680    -1.1810    -0.9760 hc         1 TFC       0.054700
     31 H72          1.6340    -1.2420     0.7870 hc         1 TFC       0.054700
     32 H81          0.1990     0.8150     0.8400 h1         1 TFC       0.058700
     33 H82          0.2340     0.8780    -0.9410 h1         1 TFC       0.058700
     34 H91         -2.5090     0.8470     0.7870 h1         1 TFC       0.095200
     35 H92         -2.4810     0.9160    -0.9870 h1         1 TFC       0.095200
@<TRIPOS>BOND
     1     1     2 1   
     2     1    17 1   
     3     1    18 1   
     4     1    19 1   
     5     2     3 1   
     6     2    20 1   
     7     2    21 1   
     8     3     4 1   
     9     3    22 1   
    10     3    23 1   
    11     4     5 1   
    12     4    24 1   
    13     4    25 1   
    14     5     6 1   
    15     5    26 1   
    16     5    27 1   
    17     6     7 1   
    18     6    28 1   
    19     6    29 1   
    20     7     8 1   
    21     7    30 1   
    22     7    31 1   
    23     8     9 1   
    24     8    32 1   
    25     8    33 1   
    26     9    10 1   
    27    10    11 1   
    28    10    34 1   
    29    10    35 1   
    30    11    12 2   
    31    11    13 1   
    32    13    14 1   
    33    13    15 1   
    34    13    16 1   
@<TRIPOS>SUBSTRUCTURE
     1 TFC         1 TEMP              0 ****  ****    0 ROOT
