@<TRIPOS>MOLECULE
TFC
   35    34     1     0     0
SMALL
abcg2


@<TRIPOS>ATOM
      1 C1           9.2090    -0.1200    -0.0280 c3         1 TFC      -0.089100
      2 C2           7.9080     0.6690     0.0140 c3         1 TFC      -0.074400
      3 C3           6.6760    -0.2280     0.0080 c3         1 TFC      -0.076400
      4 C4           5.3630     0.5450     0.0350 c3         1 TFC      -0.074400
      5 C5           4.1380    -0.3610     0.0290 c3         1 TFC      -0.075400
      6 C6           2.8220     0.4060     0.0440 c3         1 TFC      -0.073400
      7 C7           1.6080    -0.5160     0.0440 c3         1 TFC      -0.067400
      8 C8           0.3010     0.2630     0.0310 c3         1 TFC       0.053600
      9 S1          -1.0940    -0.9000     0.0400 ss         1 TFC      -0.364000
     10 C9          -2.4430     0.2990     0.0000 c3         1 TFC      -0.061400
     11 C10         -3.7510    -0.4170    -0.0050 c          1 TFC       0.528100
     12 O1          -3.8780    -1.6090     0.0210 o          1 TFC      -0.419100
     13 C11         -5.0380     0.4330    -0.0370 c3         1 TFC       0.203000
     14 F1          -5.7410     0.2240     1.0750 f          1 TFC      -0.101333
     15 F2          -4.7920     1.7370    -0.1310 f          1 TFC      -0.101333
     16 F3          -5.7880     0.0780    -1.0770 f          1 TFC      -0.101333
     17 H11          9.2810    -0.8060     0.8190 hc         1 TFC       0.031700
     18 H12          9.2770    -0.7160    -0.9400 hc         1 TFC       0.031700
     19 H13         10.0810     0.5350     0.0040 hc         1 TFC       0.031700
     20 H21          7.8890     1.3030     0.9060 hc         1 TFC       0.036700
     21 H22          7.8630     1.3500    -0.8420 hc         1 TFC       0.036700
     22 H31          6.7010    -0.8690    -0.8810 hc         1 TFC       0.037700
     23 H32          6.7180    -0.9040     0.8690 hc         1 TFC       0.037700
     24 H41          5.3360     1.1870     0.9220 hc         1 TFC       0.037200
     25 H42          5.3200     1.2200    -0.8280 hc         1 TFC       0.037200
     26 H51          4.1700    -1.0080    -0.8550 hc         1 TFC       0.039700
     27 H52          4.1780    -1.0310     0.8950 hc         1 TFC       0.039700
     28 H61          2.7860     1.0550     0.9250 hc         1 TFC       0.039200
     29 H62          2.7750     1.0690    -0.8270 hc         1 TFC       0.039200
     30 H71          1.6500    -1.1750    -0.8280 hc         1 TFC       0.054700
     31 H72          1.6420    -1.1620     0.9270 hc         1 TFC       0.054700
     32 H81          0.2330     0.9120     0.9070 h1         1 TFC       0.058700
     33 H82          0.2390     0.8910    -0.8600 h1         1 TFC       0.058700
     34 H91         -2.3990     0.9680     0.8660 h1         1 TFC       0.095200
     35 H92         -2.3740     0.9350    -0.8880 h1         1 TFC       0.095200
@<TRIPOS>BOND
     1     1     2 1   
     2     1    17 1   
     3     1    18 1   
     4     1    19 1   
     5     2     3 1   
     6     2    20 1   
     7     2    21 1   
     8     3     4 1   
     9     3    22 1   
    10     3    23 1   
    11     4     5 1   
    12     4    24 1   
    13     4    25 1   
    14     5     6 1   
    15     5    26 1   
    16     5    27 1   
    17     6     7 1   
    18     6    28 1   
    19     6    29 1   
    20     7     8 1   
    21     7    30 1   
    22     7    31 1   
    23     8     9 1   
    24     8    32 1   
    25     8    33 1   
    26     9    10 1   
    27    10    11 1   
    28    10    34 1   
    29    10    35 1   
    30    11    12 2   
    31    11    13 1   
    32    13    14 1   
    33    13    15 1   
    34    13    16 1   
@<TRIPOS>SUBSTRUCTURE
     1 TFC         1 TEMP              0 ****  ****    0 ROOT
