@<TRIPOS>MOLECULE
TFD
   44    46     1     0     0
SMALL
No Charge or Current Charge


@<TRIPOS>ATOM
      1 F1          -6.0180    -2.4700     0.4180 f          1 TFD      -0.107333
      2 C18         -6.6960    -1.3040     0.2740 c3         1 TFD       0.261700
      3 F2          -7.5320    -1.4700    -0.7780 f          1 TFD      -0.107333
      4 F3          -7.4750    -1.1720     1.3730 f          1 TFD      -0.107333
      5 C14         -5.7770    -0.0780     0.0800 ca         1 TFD       0.297300
      6 N6          -4.4290    -0.2670     0.0660 nb         1 TFD      -0.718000
      7 C15         -6.3480     1.2050    -0.0780 ca         1 TFD      -0.173000
      8 C16         -5.5150     2.3210    -0.2560 ca         1 TFD      -0.038000
      9 C17         -4.1290     2.1090    -0.2680 ca         1 TFD      -0.208000
     10 C13         -3.6520     0.8020    -0.1010 ca         1 TFD       0.617900
     11 N5          -2.3300     0.4620    -0.0980 nu         1 TFD      -0.921100
     12 C11         -1.1680     1.3720    -0.0370 c3         1 TFD       0.204800
     13 C10          0.1920     0.6140    -0.0390 c3         1 TFD       0.218800
     14 N4           1.3550     1.5340     0.0220 nu         1 TFD      -0.924100
     15 C7           2.7070     1.1840     0.0350 ca         1 TFD       0.399900
     16 C8           3.7140     2.1670     0.0910 ca         1 TFD      -0.081000
     17 Cl           3.3190     3.8940     0.1480 cl         1 TFD      -0.190000
     18 N3           3.0060    -0.1270    -0.0080 nb         1 TFD      -0.220000
     19 C6           4.3120    -0.4840     0.0040 cp         1 TFD       0.138000
     20 N2           5.3370     0.3980     0.0570 nb         1 TFD      -0.228000
     21 C9           5.0480     1.7150     0.1010 ca         1 TFD       0.180300
     22 C12          6.2300     2.6710     0.1590 c3         1 TFD      -0.152400
     23 C5           4.6540    -1.9630    -0.0450 cp         1 TFD       0.286000
     24 N1           3.6250    -2.8520    -0.0970 nb         1 TFD      -0.630000
     25 C1           3.8910    -4.1780    -0.1420 ca         1 TFD       0.327900
     26 C2           5.1970    -4.6920    -0.1360 ca         1 TFD      -0.149000
     27 C3           6.2780    -3.8000    -0.0820 ca         1 TFD      -0.088000
     28 C4           6.0010    -2.4240    -0.0360 ca         1 TFD      -0.114000
     29 H1          -7.4280     1.3270    -0.0630 ha         1 TFD       0.142000
     30 H2          -5.9320     3.3190    -0.3820 ha         1 TFD       0.123000
     31 H3          -3.4450     2.9390    -0.4050 ha         1 TFD       0.127000
     32 H4          -2.1920    -0.5290     0.0870 hn         1 TFD       0.501000
     33 H5          -1.1900     2.0530    -0.8980 h1         1 TFD       0.043700
     34 H6          -1.2300     1.9830     0.8740 h1         1 TFD       0.043700
     35 H7           0.2130    -0.0690     0.8220 h1         1 TFD       0.071200
     36 H8           0.2480     0.0010    -0.9490 h1         1 TFD       0.071200
     37 H9           1.1720     2.5390     0.0550 hn         1 TFD       0.503000
     38 H10          6.1930     3.2820     1.0690 hc         1 TFD       0.061700
     39 H11          7.1880     2.1380     0.1580 hc         1 TFD       0.061700
     40 H12          6.2270     3.3480    -0.7030 hc         1 TFD       0.061700
     41 H13          3.0310    -4.8450    -0.1830 h4         1 TFD       0.022100
     42 H14          5.3600    -5.7650    -0.1730 ha         1 TFD       0.125000
     43 H15          7.3040    -4.1650    -0.0760 ha         1 TFD       0.121000
     44 H16          6.8260    -1.7180     0.0060 ha         1 TFD       0.147000
@<TRIPOS>BOND
     1     1     2 1   
     2     2     3 1   
     3     2     4 1   
     4     2     5 1   
     5     5     6 ar  
     6     5     7 ar  
     7     6    10 ar  
     8     7     8 ar  
     9     7    29 1   
    10     8     9 ar  
    11     8    30 1   
    12     9    10 ar  
    13     9    31 1   
    14    10    11 1   
    15    11    12 1   
    16    11    32 1   
    17    12    13 1   
    18    12    33 1   
    19    12    34 1   
    20    13    14 1   
    21    13    35 1   
    22    13    36 1   
    23    14    15 1   
    24    14    37 1   
    25    15    16 ar  
    26    15    18 ar  
    27    16    17 1   
    28    16    21 ar  
    29    18    19 ar  
    30    19    20 ar  
    31    19    23 1   
    32    20    21 ar  
    33    21    22 1   
    34    22    38 1   
    35    22    39 1   
    36    22    40 1   
    37    23    24 ar  
    38    23    28 ar  
    39    24    25 ar  
    40    25    26 ar  
    41    25    41 1   
    42    26    27 ar  
    43    26    42 1   
    44    27    28 ar  
    45    27    43 1   
    46    28    44 1   
@<TRIPOS>SUBSTRUCTURE
     1 TFD         1 TEMP              0 ****  ****    0 ROOT
