@<TRIPOS>MOLECULE
TFD
   44    46     1     0     0
SMALL
bcc


@<TRIPOS>ATOM
      1 F1          -6.0810    -2.3040     0.5320 f          1 TFD      -0.228633
      2 C18         -6.6170    -1.0840     0.5560 c3         1 TFD       0.625600
      3 F2          -7.7380    -1.1250    -0.1720 f          1 TFD      -0.228633
      4 F3          -6.9840    -0.8400     1.8230 f          1 TFD      -0.228633
      5 C14         -5.6620    -0.0290     0.0610 ca         1 TFD       0.362600
      6 N6          -4.3870    -0.2760     0.3090 nb         1 TFD      -0.718000
      7 C15         -6.1390     1.1150    -0.5460 ca         1 TFD      -0.256300
      8 C16         -5.1860     2.0650    -0.9110 ca         1 TFD      -0.056000
      9 C17         -3.8510     1.8390    -0.6670 ca         1 TFD      -0.291300
     10 C13         -3.4780     0.6290    -0.0500 ca         1 TFD       0.683200
     11 N5          -2.1830     0.3050     0.1970 nu         1 TFD      -0.865900
     12 C11         -1.1030     1.2550     0.1100 c3         1 TFD       0.204800
     13 C10          0.2220     0.5350     0.3070 c3         1 TFD       0.218800
     14 N4           1.2900     1.5060     0.2740 nu         1 TFD      -0.868900
     15 C7           2.5840     1.1660     0.2070 ca         1 TFD       0.728200
     16 C8           3.6150     2.1280     0.2480 ca         1 TFD      -0.303200
     17 CL           3.2300     3.8050     0.3980 cl         1 TFD      -0.098400
     18 N3           2.8960    -0.1220     0.0870 nb         1 TFD      -0.746000
     19 C6           4.1760    -0.4420     0.0040 cp         1 TFD       0.664000
     20 N2           5.1960     0.4000     0.0390 nb         1 TFD      -0.754000
     21 C9           4.9230     1.7020     0.1630 ca         1 TFD       0.508600
     22 C12          6.0720     2.6550     0.2010 c3         1 TFD      -0.152400
     23 C5           4.5140    -1.8850    -0.1380 cp         1 TFD       0.351300
     24 N1           3.5020    -2.7440    -0.2030 nb         1 TFD      -0.630000
     25 C1           3.7760    -4.0340    -0.3280 ca         1 TFD       0.393200
     26 C2           5.0670    -4.5400    -0.3960 ca         1 TFD      -0.232300
     27 C3           6.1220    -3.6440    -0.3300 ca         1 TFD      -0.106000
     28 C4           5.8450    -2.2930    -0.1990 ca         1 TFD      -0.197300
     29 H1          -7.1900     1.2840    -0.7240 ha         1 TFD       0.160000
     30 H2          -5.4960     2.9860    -1.3870 ha         1 TFD       0.141000
     31 H3          -3.1150     2.5810    -0.9410 ha         1 TFD       0.145000
     32 H4          -2.0600    -0.4690     0.8330 hn         1 TFD       0.445800
     33 H5          -1.1020     1.7280    -0.8740 h1         1 TFD       0.043700
     34 H6          -1.2080     2.0540     0.8560 h1         1 TFD       0.043700
     35 H7           0.2170    -0.0110     1.2580 h1         1 TFD       0.071200
     36 H8           0.3650    -0.1980    -0.4860 h1         1 TFD       0.071200
     37 H9           1.0640     2.4570     0.5170 hn         1 TFD       0.447800
     38 H10          6.0940     3.2050     1.1430 hc         1 TFD       0.061700
     39 H11          7.0080     2.1130     0.0930 hc         1 TFD       0.061700
     40 H12          5.9990     3.3920    -0.5990 hc         1 TFD       0.061700
     41 H13          2.9260    -4.7050    -0.3800 h4         1 TFD       0.022100
     42 H14          5.2330    -5.6040    -0.4960 ha         1 TFD       0.143000
     43 H15          7.1460    -3.9890    -0.3790 ha         1 TFD       0.139000
     44 H16          6.6390    -1.5640    -0.1440 ha         1 TFD       0.165000
@<TRIPOS>BOND
     1     1     2 1   
     2     2     3 1   
     3     2     4 1   
     4     2     5 1   
     5     5     6 ar  
     6     5     7 ar  
     7     6    10 ar  
     8     7     8 ar  
     9     7    29 1   
    10     8     9 ar  
    11     8    30 1   
    12     9    10 ar  
    13     9    31 1   
    14    10    11 1   
    15    11    12 1   
    16    11    32 1   
    17    12    13 1   
    18    12    33 1   
    19    12    34 1   
    20    13    14 1   
    21    13    35 1   
    22    13    36 1   
    23    14    15 1   
    24    14    37 1   
    25    15    16 ar  
    26    15    18 ar  
    27    16    17 1   
    28    16    21 ar  
    29    18    19 ar  
    30    19    20 ar  
    31    19    23 1   
    32    20    21 ar  
    33    21    22 1   
    34    22    38 1   
    35    22    39 1   
    36    22    40 1   
    37    23    24 ar  
    38    23    28 ar  
    39    24    25 ar  
    40    25    26 ar  
    41    25    41 1   
    42    26    27 ar  
    43    26    42 1   
    44    27    28 ar  
    45    27    43 1   
    46    28    44 1   
@<TRIPOS>SUBSTRUCTURE
     1 TFD         1 TEMP              0 ****  ****    0 ROOT
