@<TRIPOS>MOLECULE
TFG
   45    48     1     0     0
SMALL
bcc


@<TRIPOS>ATOM
      1 C14         17.4570    74.3560    43.4190 ca         1 TFG      -0.117500
      2 C15         17.2360    74.5560    44.7730 ca         1 TFG      -0.127000
      3 C16         17.4160    75.8150    45.3330 ca         1 TFG      -0.122000
      4 C17         17.8050    76.8740    44.5240 ca         1 TFG      -0.127000
      5 C18         18.0120    76.6790    43.1660 ca         1 TFG      -0.117500
      6 C13         17.8480    75.4150    42.5940 ca         1 TFG      -0.011000
      7 C19         18.0300    75.1750    41.1660 cc         1 TFG      -0.162600
      8 C12         17.3020    74.3990    40.3010 cd         1 TFG       0.316200
      9 N3          17.8180    74.4620    39.0420 nd         1 TFG      -0.668000
     10 C11         18.8500    75.2610    39.1310 cc         1 TFG       0.372800
     11 C10         19.7620    75.6220    38.0000 c6         1 TFG       0.080700
     12 N2          19.0260    75.7230    40.3880 na         1 TFG      -0.171900
     13 C9          20.1440    76.5580    40.7900 c6         1 TFG       0.017300
     14 C8          21.2430    76.4090    39.7560 c6         1 TFG       0.075000
     15 N1          20.7130    76.6310    38.4230 n          1 TFG      -0.473800
     16 C7          20.9110    77.8240    37.8150 c          1 TFG       0.716700
     17 O1          21.4290    78.7770    38.3810 o          1 TFG      -0.593100
     18 C4          20.5270    77.9620    36.3940 cc         1 TFG      -0.165700
     19 S1          20.1430    79.5440    35.8500 ss         1 TFG       0.140200
     20 C3          20.5320    77.0620    35.3630 cd         1 TFG      -0.121000
     21 C2          20.2050    77.6570    34.1230 cd         1 TFG      -0.117000
     22 C1          19.9600    78.9950    34.2410 cc         1 TFG      -0.167400
     23 C5          19.5750    79.9500    33.1450 c3         1 TFG       0.385900
     24 C6          20.8460    80.4050    32.3920 c3         1 TFG       0.650900
     25 F1          21.7180    80.9640    33.2310 f          1 TFG      -0.223967
     26 F2          21.4540    79.3850    31.7900 f          1 TFG      -0.223967
     27 F3          20.5510    81.3120    31.4540 f          1 TFG      -0.223967
     28 O3          18.9840    81.0390    33.7640 oh         1 TFG      -0.599800
     29 O2          18.7950    79.3540    32.1740 oh         1 TFG      -0.599800
     30 H14         17.3380    73.3660    42.9980 ha         1 TFG       0.134000
     31 H15         16.9360    73.7230    45.3940 ha         1 TFG       0.133500
     32 H16         17.2540    75.9690    46.3920 ha         1 TFG       0.133000
     33 H17         17.9390    77.8610    44.9470 ha         1 TFG       0.133500
     34 H18         18.2790    77.5290    42.5500 ha         1 TFG       0.134000
     35 H12         16.4200    73.8200    40.5290 h4         1 TFG       0.042100
     36 H101        20.2800    74.7240    37.6470 h1         1 TFG       0.078700
     37 H102        19.1550    75.9920    37.1770 h1         1 TFG       0.078700
     38 H9C1        19.8310    77.6000    40.8620 h1         1 TFG       0.073200
     39 H9C2        20.5020    76.2400    41.7690 h1         1 TFG       0.073200
     40 H8C1        22.0460    77.1090    39.9650 h1         1 TFG       0.078200
     41 H8C2        21.6600    75.3990    39.7940 h1         1 TFG       0.078200
     42 H3          20.7800    76.0160    35.4710 ha         1 TFG       0.159000
     43 H2          20.1560    77.1110    33.1920 ha         1 TFG       0.167000
     44 HA          18.6890    81.6880    33.1120 ho         1 TFG       0.441000
     45 HB          18.0230    78.9440    32.5860 ho         1 TFG       0.441000
@<TRIPOS>BOND
     1     1     2 ar  
     2     1     6 ar  
     3     1    30 1   
     4     2     3 ar  
     5     2    31 1   
     6     3     4 ar  
     7     3    32 1   
     8     4     5 ar  
     9     4    33 1   
    10     5     6 ar  
    11     5    34 1   
    12     6     7 1   
    13     7     8 2   
    14     7    12 1   
    15     8     9 1   
    16     8    35 1   
    17     9    10 2   
    18    10    11 1   
    19    10    12 1   
    20    11    15 1   
    21    11    36 1   
    22    11    37 1   
    23    12    13 1   
    24    13    14 1   
    25    13    38 1   
    26    13    39 1   
    27    14    15 1   
    28    14    40 1   
    29    14    41 1   
    30    15    16 1   
    31    16    17 2   
    32    16    18 1   
    33    18    19 1   
    34    18    20 2   
    35    19    22 1   
    36    20    21 1   
    37    20    42 1   
    38    21    22 2   
    39    21    43 1   
    40    22    23 1   
    41    23    24 1   
    42    23    28 1   
    43    23    29 1   
    44    24    25 1   
    45    24    26 1   
    46    24    27 1   
    47    28    44 1   
    48    29    45 1   
@<TRIPOS>SUBSTRUCTURE
     1 TFG         1 TEMP              0 ****  ****    0 ROOT
