@<TRIPOS>MOLECULE
TFG
   45    48     1     0     0
SMALL
No Charge or Current Charge


@<TRIPOS>ATOM
      1 C14         17.4350    74.1040    43.5070 ca         1 TFG      -0.099500
      2 C15         17.2450    74.1650    44.8990 ca         1 TFG      -0.109000
      3 C16         17.4910    75.3610    45.5910 ca         1 TFG      -0.104000
      4 C17         17.9250    76.4970    44.8900 ca         1 TFG      -0.109000
      5 C18         18.1160    76.4360    43.4980 ca         1 TFG      -0.099500
      6 C13         17.8780    75.2380    42.7930 ca         1 TFG      -0.011000
      7 C19         18.0710    75.1630    41.3410 cc         1 TFG      -0.148000
      8 C12         17.2750    74.4080    40.5160 cd         1 TFG       0.250900
      9 N3          17.6730    74.5700    39.2000 nd         1 TFG      -0.668000
     10 C11         18.6950    75.4200    39.2270 cc         1 TFG       0.372800
     11 C10         19.5120    75.9130    38.0460 c6         1 TFG       0.080700
     12 N2          18.9660    75.8130    40.5220 na         1 TFG      -0.150500
     13 C9          20.0840    76.7000    40.8930 c6         1 TFG       0.046600
     14 C8          21.1590    76.6680    39.7800 c6         1 TFG       0.075000
     15 N1          20.5700    76.9110    38.4280 n          1 TFG      -0.406800
     16 C7          20.7540    78.1510    37.7670 c          1 TFG       0.649700
     17 O1          21.1730    79.1200    38.3840 o          1 TFG      -0.593100
     18 C4          20.4350    78.2510    36.3220 cc         1 TFG      -0.310600
     19 S1          20.3810    79.8300    35.5520 ss         1 TFG       0.430000
     20 C3          20.2680    77.2420    35.3960 cd         1 TFG      -0.103000
     21 C2          20.0170    77.7240    34.0840 cd         1 TFG      -0.099000
     22 C1          20.0040    79.0980    33.9900 cc         1 TFG      -0.312300
     23 C5          19.8030    79.9530    32.7700 c3         1 TFG       0.432300
     24 C6          21.1530    80.2480    31.9940 c3         1 TFG       0.287000
     25 F1          22.0390    80.9040    32.7820 f          1 TFG      -0.102667
     26 F2          21.7460    79.1020    31.5810 f          1 TFG      -0.102667
     27 F3          20.9370    81.0160    30.8980 f          1 TFG      -0.102667
     28 O3          19.1490    81.1470    33.1460 oh         1 TFG      -0.662000
     29 O2          18.8630    79.3080    31.9440 oh         1 TFG      -0.662000
     30 H14         17.2480    73.1680    42.9880 ha         1 TFG       0.116000
     31 H15         16.9080    73.2830    45.4390 ha         1 TFG       0.115500
     32 H16         17.3430    75.4080    46.6680 ha         1 TFG       0.115000
     33 H17         18.1090    77.4270    45.4230 ha         1 TFG       0.115500
     34 H18         18.4300    77.3320    42.9710 ha         1 TFG       0.116000
     35 H12         16.4420    73.7700    40.7850 h4         1 TFG       0.042100
     36 H101        19.9890    75.0560    37.5530 h1         1 TFG       0.078700
     37 H102        18.8140    76.3650    37.3290 h1         1 TFG       0.078700
     38 H9C1        19.7060    77.7240    41.0100 h1         1 TFG       0.073200
     39 H9C2        20.5200    76.3750    41.8480 h1         1 TFG       0.073200
     40 H8C1        21.9440    77.4040    40.0050 h1         1 TFG       0.078200
     41 H8C2        21.6450    75.6810    39.7800 h1         1 TFG       0.078200
     42 H3          20.3510    76.1820    35.6060 ha         1 TFG       0.141000
     43 H2          19.8690    77.0620    33.2340 ha         1 TFG       0.149000
     44 HA          19.1660    81.7160    32.3490 ho         1 TFG       0.480000
     45 HB          18.2780    78.8440    32.5780 ho         1 TFG       0.480000
@<TRIPOS>BOND
     1     1     2 ar  
     2     1     6 ar  
     3     1    30 1   
     4     2     3 ar  
     5     2    31 1   
     6     3     4 ar  
     7     3    32 1   
     8     4     5 ar  
     9     4    33 1   
    10     5     6 ar  
    11     5    34 1   
    12     6     7 1   
    13     7     8 2   
    14     7    12 1   
    15     8     9 1   
    16     8    35 1   
    17     9    10 2   
    18    10    11 1   
    19    10    12 1   
    20    11    15 1   
    21    11    36 1   
    22    11    37 1   
    23    12    13 1   
    24    13    14 1   
    25    13    38 1   
    26    13    39 1   
    27    14    15 1   
    28    14    40 1   
    29    14    41 1   
    30    15    16 1   
    31    16    17 2   
    32    16    18 1   
    33    18    19 1   
    34    18    20 2   
    35    19    22 1   
    36    20    21 1   
    37    20    42 1   
    38    21    22 2   
    39    21    43 1   
    40    22    23 1   
    41    23    24 1   
    42    23    28 1   
    43    23    29 1   
    44    24    25 1   
    45    24    26 1   
    46    24    27 1   
    47    28    44 1   
    48    29    45 1   
@<TRIPOS>SUBSTRUCTURE
     1 TFG         1 TEMP              0 ****  ****    0 ROOT
