@<TRIPOS>MOLECULE
TFI
   55    56     1     0     0
SMALL
bcc


@<TRIPOS>ATOM
      1 C1          -2.3370    -0.9010     4.0210 c3         1 TFI       0.569900
      2 C2          -1.1050    -0.0030     3.8180 c          1 TFI       0.504100
      3 C3          -0.0400    -0.4970     2.8490 c3         1 TFI       0.028700
      4 C4           1.3230    -0.7630     3.5220 c3         1 TFI      -0.072700
      5 C5           1.9900     0.4700     4.1220 c3         1 TFI      -0.092600
      6 C6           1.2280    -1.8790     4.5570 c3         1 TFI      -0.092600
      7 C8          -0.0400     1.3690    -0.4420 c3         1 TFI      -0.013000
      8 C9          -0.5130     1.0720    -2.8080 c          1 TFI       0.691700
      9 C10         -0.1220     0.4030    -4.0210 cc         1 TFI      -0.110200
     10 C11          1.0460    -0.2850    -4.0590 cd         1 TFI       0.195600
     11 C12          1.5630     0.2300    -1.9030 cc         1 TFI       0.588500
     12 C13          2.4930     0.1180    -0.7690 ca         1 TFI      -0.225900
     13 C14          2.9450    -1.1490    -0.3960 ca         1 TFI      -0.036500
     14 C15          3.8290    -1.3110     0.6490 ca         1 TFI      -0.221500
     15 C16          4.3190    -0.2000     1.3530 ca         1 TFI       0.200600
     16 C17          3.8970     1.0760     0.9500 ca         1 TFI      -0.221500
     17 C18          2.9980     1.2250    -0.0870 ca         1 TFI      -0.036500
     18 C19         -3.1530    -0.9210    -4.0880 c3         1 TFI      -0.263300
     19 N1           0.0600     0.4730     1.7840 ns         1 TFI      -0.569900
     20 N2           0.4010     0.9330    -1.7580 n          1 TFI      -0.354300
     21 N3           1.8880    -0.3700    -3.0100 nd         1 TFI      -0.625300
     22 N5           5.2130    -0.3550     2.3710 nv         1 TFI      -0.840200
     23 O1          -1.0590     1.0560     4.3750 o          1 TFI      -0.441100
     24 O3          -1.5520     1.7000    -2.6750 o          1 TFI      -0.636500
     25 O4          -2.6840    -0.5600    -6.6530 o          1 TFI      -0.600800
     26 O5          -1.1390    -2.0450    -5.3370 o          1 TFI      -0.600800
     27 F1          -3.1720    -0.3950     4.9140 f          1 TFI      -0.219633
     28 F2          -2.9830    -1.0270     2.8590 f          1 TFI      -0.219633
     29 F3          -1.9780    -2.1210     4.4240 f          1 TFI      -0.219633
     30 S1          -1.9780    -0.8620    -5.4200 s6         1 TFI       1.210900
     31 H3          -0.3600    -1.4330     2.3910 h1         1 TFI       0.110700
     32 H4           1.9490    -1.1170     2.6970 hc         1 TFI       0.066700
     33 H51          3.0110     0.2180     4.4100 hc         1 TFI       0.041533
     34 H52          2.0610     1.3000     3.4190 hc         1 TFI       0.041533
     35 H53          1.4780     0.8200     5.0180 hc         1 TFI       0.041533
     36 H61          0.6520    -1.5760     5.4340 hc         1 TFI       0.041533
     37 H62          0.7760    -2.7830     4.1460 hc         1 TFI       0.041533
     38 H63          2.2250    -2.1430     4.9080 hc         1 TFI       0.041533
     39 H81         -1.0340     1.8020    -0.5540 h1         1 TFI       0.094700
     40 H82          0.5920     2.1600    -0.0470 h1         1 TFI       0.094700
     41 H11          1.3510    -0.7960    -4.9640 h4         1 TFI       0.192000
     42 H14          2.5790    -2.0230    -0.9180 ha         1 TFI       0.144000
     43 H15          4.1430    -2.3070     0.9380 ha         1 TFI       0.138000
     44 H17          4.2810     1.9540     1.4540 ha         1 TFI       0.138000
     45 H18          2.7150     2.2280    -0.3810 ha         1 TFI       0.144000
     46 H191        -3.8000    -1.7800    -4.2570 h1         1 TFI       0.105700
     47 H192        -2.6290    -1.0390    -3.1430 h1         1 TFI       0.105700
     48 H193        -3.7390    -0.0060    -4.0860 h1         1 TFI       0.105700
     49 HN1          0.3720     1.4030     2.0170 hn         1 TFI       0.327500
     50 HN4         -1.4820     1.3310    -5.2490 hn         1 TFI       0.443800
     51 HN51         5.3330     0.4110     3.0130 hn         1 TFI       0.412300
     52 HN52         5.2750    -1.2600     2.8070 hn         1 TFI       0.412300
     53 C7          -0.1600     0.1760     0.4920 c          1 TFI       0.663100
     54 N4          -0.9890     0.4500    -5.1280 nu         1 TFI      -0.650900
     55 O2          -0.4790    -0.9210     0.0760 o          1 TFI      -0.573100
@<TRIPOS>BOND
     1     1     2 1   
     2     1    27 1   
     3     1    28 1   
     4     1    29 1   
     5     2     3 1   
     6     2    23 2   
     7     3     4 1   
     8     3    19 1   
     9     3    31 1   
    10     4     5 1   
    11     4     6 1   
    12     4    32 1   
    13     5    33 1   
    14     5    34 1   
    15     5    35 1   
    16     6    36 1   
    17     6    37 1   
    18     6    38 1   
    19     7    20 1   
    20     7    39 1   
    21     7    40 1   
    22     7    53 1   
    23     8     9 1   
    24     8    20 1   
    25     8    24 2   
    26     9    10 2   
    27     9    54 1   
    28    10    21 1   
    29    10    41 1   
    30    11    12 1   
    31    11    20 1   
    32    11    21 2   
    33    12    13 ar  
    34    12    17 ar  
    35    13    14 ar  
    36    13    42 1   
    37    14    15 ar  
    38    14    43 1   
    39    15    16 ar  
    40    15    22 1   
    41    16    17 ar  
    42    16    44 1   
    43    17    45 1   
    44    18    30 1   
    45    18    46 1   
    46    18    47 1   
    47    18    48 1   
    48    19    49 1   
    49    19    53 1   
    50    22    51 1   
    51    22    52 1   
    52    25    30 2   
    53    26    30 2   
    54    30    54 1   
    55    50    54 1   
    56    53    55 2   
@<TRIPOS>SUBSTRUCTURE
     1 TFI         1 TEMP              0 ****  ****    0 ROOT
