@<TRIPOS>MOLECULE
TFI
   55    56     1     0     0
SMALL
No Charge or Current Charge


@<TRIPOS>ATOM
      1 C1          -2.4300    -0.2140     4.9850 c3         1 TFI       0.206000
      2 C2          -1.1240     0.3990     4.4140 c          1 TFI       0.504100
      3 C3          -0.4880    -0.3350     3.1960 c3         1 TFI       0.028700
      4 C4           0.8680    -1.0510     3.5060 c3         1 TFI      -0.072700
      5 C5           2.0290    -0.0790     3.8310 c3         1 TFI      -0.092600
      6 C6           0.7340    -2.1380     4.5980 c3         1 TFI      -0.092600
      7 C8           0.0000     1.3880    -0.2430 c3         1 TFI      -0.013000
      8 C9          -0.6480     1.1010    -2.6260 c          1 TFI       0.549200
      9 C10         -0.2980     0.5220    -3.9450 cc         1 TFI      -0.110200
     10 C11          0.9050    -0.1300    -4.1600 cd         1 TFI       0.145600
     11 C12          1.5070     0.2830    -1.9430 cc         1 TFI       0.588500
     12 C13          2.5170     0.1690    -0.8870 ca         1 TFI      -0.225900
     13 C14          2.8050    -1.0890    -0.3190 ca         1 TFI      -0.018500
     14 C15          3.7850    -1.2050     0.6810 ca         1 TFI      -0.203500
     15 C16          4.4900    -0.0750     1.1110 ca         1 TFI       0.339000
     16 C17          4.2160     1.1760     0.5470 ca         1 TFI      -0.203500
     17 C18          3.2360     1.3020    -0.4530 ca         1 TFI      -0.018500
     18 C19         -2.0990    -1.9340    -4.8250 c3         1 TFI      -0.374100
     19 N1          -0.3510     0.6110     2.0640 ns         1 TFI      -0.502900
     20 N2           0.3190     0.9400    -1.6410 n          1 TFI      -0.287300
     21 N3           1.8280    -0.2540    -3.1180 nd         1 TFI      -0.625300
     22 N5           5.4520    -0.1940     2.0720 nv         1 TFI      -1.089000
     23 O1          -0.6480     1.4450     4.8500 o          1 TFI      -0.441100
     24 O3          -1.7180     1.6670    -2.4220 o          1 TFI      -0.561000
     25 O4          -3.1550    -0.0820    -6.3970 o          1 TFI      -0.530000
     26 O5          -0.7840    -0.8760    -6.8720 o          1 TFI      -0.530000
     27 F1          -2.8350     0.4190     6.1130 f          1 TFI      -0.098333
     28 F2          -3.4420    -0.1220     4.0900 f          1 TFI      -0.098333
     29 F3          -2.2840    -1.5230     5.2950 f          1 TFI      -0.098333
     30 S1          -1.8520    -0.5510    -5.9230 s6         1 TFI       1.180100
     31 H3          -1.2070    -1.1080     2.8920 h1         1 TFI       0.110700
     32 H4           1.1590    -1.5790     2.5880 hc         1 TFI       0.066700
     33 H51          2.9690    -0.6320     3.9440 hc         1 TFI       0.041533
     34 H52          2.1720     0.6540     3.0290 hc         1 TFI       0.041533
     35 H53          1.8470     0.4630     4.7670 hc         1 TFI       0.041533
     36 H61          0.4920    -1.6950     5.5720 hc         1 TFI       0.041533
     37 H62         -0.0510    -2.8580     4.3370 hc         1 TFI       0.041533
     38 H63          1.6740    -2.6930     4.7050 hc         1 TFI       0.041533
     39 H81         -0.8800     2.0400    -0.2230 h1         1 TFI       0.094700
     40 H82          0.8270     1.9830     0.1590 h1         1 TFI       0.094700
     41 H11          1.1820    -0.5520    -5.1240 h4         1 TFI       0.242000
     42 H14          2.2650    -1.9740    -0.6510 ha         1 TFI       0.126000
     43 H15          3.9970    -2.1780     1.1150 ha         1 TFI       0.120000
     44 H17          4.7660     2.0540     0.8740 ha         1 TFI       0.120000
     45 H18          3.0420     2.2780    -0.8960 ha         1 TFI       0.126000
     46 H191        -2.5170    -2.7520    -5.4200 h1         1 TFI       0.105700
     47 H192        -1.1260    -2.2090    -4.4070 h1         1 TFI       0.105700
     48 H193        -2.7950    -1.6170    -4.0420 h1         1 TFI       0.105700
     49 HN1         -0.2200     1.5970     2.2720 hn         1 TFI       0.327500
     50 HN4         -2.1040     1.1840    -4.6800 hn         1 TFI       0.499000
     51 HN51         5.8480     0.6440     2.4930 hn         1 TFI       0.467500
     52 HN52         5.5450    -1.0650     2.5890 hn         1 TFI       0.467500
     53 C7          -0.2740     0.2380     0.7390 c          1 TFI       0.596100
     54 N4          -1.2650     0.6790    -4.9550 nu         1 TFI      -0.706100
     55 O2          -0.4260    -0.9220     0.3840 o          1 TFI      -0.573100
@<TRIPOS>BOND
     1     1     2 1   
     2     1    27 1   
     3     1    28 1   
     4     1    29 1   
     5     2     3 1   
     6     2    23 2   
     7     3     4 1   
     8     3    19 1   
     9     3    31 1   
    10     4     5 1   
    11     4     6 1   
    12     4    32 1   
    13     5    33 1   
    14     5    34 1   
    15     5    35 1   
    16     6    36 1   
    17     6    37 1   
    18     6    38 1   
    19     7    20 1   
    20     7    39 1   
    21     7    40 1   
    22     7    53 1   
    23     8     9 1   
    24     8    20 1   
    25     8    24 2   
    26     9    10 2   
    27     9    54 1   
    28    10    21 1   
    29    10    41 1   
    30    11    12 1   
    31    11    20 1   
    32    11    21 2   
    33    12    13 ar  
    34    12    17 ar  
    35    13    14 ar  
    36    13    42 1   
    37    14    15 ar  
    38    14    43 1   
    39    15    16 ar  
    40    15    22 1   
    41    16    17 ar  
    42    16    44 1   
    43    17    45 1   
    44    18    30 1   
    45    18    46 1   
    46    18    47 1   
    47    18    48 1   
    48    19    49 1   
    49    19    53 1   
    50    22    51 1   
    51    22    52 1   
    52    25    30 2   
    53    26    30 2   
    54    30    54 1   
    55    50    54 1   
    56    53    55 2   
@<TRIPOS>SUBSTRUCTURE
     1 TFI         1 TEMP              0 ****  ****    0 ROOT
