@<TRIPOS>MOLECULE
TFJ
  100   100     1     0     0
SMALL
abcg2


@<TRIPOS>ATOM
      1 N1          -0.4700    14.3090    23.4650 n          1 TFJ      -0.330000
      2 C4          -3.7310    15.9020    24.6270 c3         1 TFJ      -0.026500
      3 C5          -0.4930    14.3420    22.0100 c3         1 TFJ       0.089000
      4 C6          -1.2970    13.1960    21.4160 c3         1 TFJ      -0.112100
      5 C7          -5.0930    15.3060    24.2190 c3         1 TFJ       0.179300
      6 C8          -5.0900    13.7700    24.2090 c3         1 TFJ      -0.068700
      7 C10         -6.4820    16.7040    22.8680 c3         1 TFJ       0.143900
      8 C15         -9.3580    13.3780    26.1610 c5         1 TFJ       0.106300
      9 C17        -10.2290    11.2410    26.8810 c5         1 TFJ      -0.116400
     10 C20         -7.6070     9.7030    22.4850 c3         1 TFJ      -0.087700
     11 C21         -8.7520     8.7810    22.9370 c3         1 TFJ       0.175300
     12 C22         -7.4730     9.7410    20.9660 c3         1 TFJ      -0.087100
     13 C24        -11.2870     8.4690    23.1010 c3         1 TFJ       0.183300
     14 C1           0.5450    13.6860    24.1120 c          1 TFJ       0.601900
     15 C11         -4.5840    13.1940    25.5310 c3         1 TFJ      -0.080100
     16 C12         -6.4570    13.2050    23.8140 c3         1 TFJ       0.175300
     17 C16        -10.4580    12.3310    25.8340 c5         1 TFJ      -0.098400
     18 C18         -8.7740    11.4570    27.2640 c5         1 TFJ       0.147600
     19 C2          -1.5410    14.8070    24.2070 c2         1 TFJ      -0.088400
     20 C23        -10.1330     9.2890    22.5350 c3         1 TFJ      -0.080400
     21 C25        -12.6620     8.9160    22.6000 c3         1 TFJ      -0.070700
     22 C27        -12.8690     8.7180    21.1010 c3         1 TFJ      -0.085600
     23 C29        -10.5750     4.8310    23.0520 c3         1 TFJ      -0.142400
     24 C3          -2.6330    15.4050    23.7330 c2         1 TFJ      -0.266200
     25 C30        -10.1090     3.8040    24.0710 c3         1 TFJ      -0.071400
     26 C31         -9.6900     2.5040    23.4020 c3         1 TFJ       0.148800
     27 C9          -3.7630    17.4320    24.6410 c3         1 TFJ      -0.084100
     28 N2          -9.2450     1.5350    24.3920 n8         1 TFJ      -0.993200
     29 O1           1.4940    13.1530    23.5730 o          1 TFJ      -0.583100
     30 O2          -5.4470    15.7540    22.9240 os         1 TFJ      -0.468000
     31 O3          -7.3070    13.2310    24.9820 os         1 TFJ      -0.434100
     32 O5          -8.5990    12.8630    27.2210 os         1 TFJ      -0.432000
     33 O6          -8.7540     8.6150    24.3410 os         1 TFJ      -0.463000
     34 O7         -11.0670     7.0930    22.7380 os         1 TFJ      -0.462100
     35 O8         -11.1990     6.3120    24.8380 o          1 TFJ      -0.484000
     36 H4          -3.5310    15.5730    25.6510 hc         1 TFJ       0.049700
     37 H6           0.5350    14.3070    21.6570 h1         1 TFJ       0.061200
     38 H5          -0.8990    15.3040    21.6970 h1         1 TFJ       0.061200
     39 H8          -1.3170    13.2800    20.3290 hc         1 TFJ       0.042700
     40 H7          -0.8530    12.2340    21.6710 hc         1 TFJ       0.042700
     41 H9          -2.3280    13.2010    21.7710 hc         1 TFJ       0.042700
     42 H10         -5.8360    15.6480    24.9550 h1         1 TFJ       0.046700
     43 H11         -4.4000    13.4570    23.4150 hc         1 TFJ       0.066700
     44 H17         -6.6710    16.9220    21.8170 h1         1 TFJ       0.033033
     45 H15         -7.4100    16.3280    23.3110 h1         1 TFJ       0.033033
     46 H16         -6.2230    17.6430    23.3680 h1         1 TFJ       0.033033
     47 H23         -5.7840    11.1560    23.9890 hc         1 TFJ       0.048200
     48 H22         -5.8120    11.8070    22.3650 hc         1 TFJ       0.048200
     49 H24         -9.8020    14.3250    26.4820 h1         1 TFJ       0.091700
     50 H28        -10.8760    11.3880    27.7470 hc         1 TFJ       0.062200
     51 H27        -10.4140    10.2410    26.4900 hc         1 TFJ       0.062200
     52 H33         -6.6850     9.2500    22.8690 hc         1 TFJ       0.046700
     53 H34         -8.5870     7.8020    22.4600 h1         1 TFJ       0.039700
     54 H36         -6.5750    10.2860    20.6700 hc         1 TFJ       0.035367
     55 H35         -7.3950     8.7360    20.5450 hc         1 TFJ       0.035367
     56 H37         -8.3220    10.2380    20.4940 hc         1 TFJ       0.035367
     57 H40        -11.2800     8.5570    24.1880 h1         1 TFJ       0.079700
     58 H44        -13.6700     8.3950    24.4600 hc         1 TFJ       0.036700
     59 H43        -14.7520     8.6620    23.0970 hc         1 TFJ       0.036700
     60 H42        -13.8260     7.1720    23.1960 hc         1 TFJ       0.036700
     61 H1           0.4270    13.7130    25.2060 h5         1 TFJ       0.013200
     62 H19         -4.7540    12.1190    25.5960 hc         1 TFJ       0.038367
     63 H20         -3.5110    13.3480    25.6390 hc         1 TFJ       0.038367
     64 H18         -5.0740    13.6570    26.3880 hc         1 TFJ       0.038367
     65 H21         -6.9000    13.8260    23.0340 h1         1 TFJ       0.080700
     66 H26        -11.4520    12.7710    25.8940 hc         1 TFJ       0.060700
     67 H25        -10.3470    11.9300    24.8250 hc         1 TFJ       0.060700
     68 H30         -8.5280    11.1100    28.2680 h1         1 TFJ       0.055700
     69 H29         -8.1040    10.9510    26.5570 h1         1 TFJ       0.055700
     70 H32         -8.3540    11.7330    22.4420 hc         1 TFJ       0.052200
     71 H31         -8.2400    11.0320    24.0440 hc         1 TFJ       0.052200
     72 H2          -1.4270    14.6640    25.2760 h4         1 TFJ       0.180000
     73 H38        -10.1850     9.3220    21.4450 hc         1 TFJ       0.058700
     74 H39        -10.2740    10.3170    22.8830 hc         1 TFJ       0.058700
     75 H41        -12.7060     9.9910    22.8110 hc         1 TFJ       0.049700
     76 H45        -13.8340     9.1280    20.8010 hc         1 TFJ       0.036700
     77 H47        -12.1080     9.2160    20.5010 hc         1 TFJ       0.036700
     78 H46        -12.8680     7.6600    20.8320 hc         1 TFJ       0.036700
     79 H49         -9.7980     5.0120    22.3040 hc         1 TFJ       0.067200
     80 H48        -11.4360     4.4460    22.4940 hc         1 TFJ       0.067200
     81 H3          -2.7690    15.5610    22.6680 ha         1 TFJ       0.192000
     82 H50        -10.9020     3.5970    24.7930 hc         1 TFJ       0.061200
     83 H51         -9.2640     4.2080    24.6370 hc         1 TFJ       0.061200
     84 H53         -8.9350     2.7250    22.6330 h1         1 TFJ       0.025700
     85 H52        -10.5490     2.0820    22.8730 h1         1 TFJ       0.025700
     86 H56         -7.9830     7.5840    25.9000 h1         1 TFJ       0.028367
     87 H58         -7.8700     6.7330    24.3500 h1         1 TFJ       0.028367
     88 H57         -6.7680     8.0720    24.7140 h1         1 TFJ       0.028367
     89 H12         -4.5820    17.8070    25.2570 hc         1 TFJ       0.037367
     90 H14         -2.8310    17.8220    25.0510 hc         1 TFJ       0.037367
     91 H13         -3.8770    17.8430    23.6380 hc         1 TFJ       0.037367
     92 H55         -9.0100     0.6660    23.9310 hn         1 TFJ       0.393000
     93 H60         -8.3820     1.8600    24.8130 hn         1 TFJ       0.393000
     94 C13         -6.3740    11.7720    23.3030 c3         1 TFJ      -0.089400
     95 C14         -8.5470    13.6710    24.9100 c          1 TFJ       0.575100
     96 C19         -7.7270    11.1060    23.0840 c3         1 TFJ      -0.075400
     97 C26        -13.7860     8.2460    23.3860 c3         1 TFJ      -0.085600
     98 C28        -10.9770     6.1460    23.6650 c          1 TFJ       0.600100
     99 C32         -7.7970     7.7150    24.8350 c3         1 TFJ       0.149900
    100 O4          -9.0420    14.2300    23.9620 o          1 TFJ      -0.506000
@<TRIPOS>BOND
     1     1     3 1   
     2     1    14 1   
     3     1    19 1   
     4     2     5 1   
     5     2    24 1   
     6     2    27 1   
     7     2    36 1   
     8     3     4 1   
     9     3    37 1   
    10     3    38 1   
    11     4    39 1   
    12     4    40 1   
    13     4    41 1   
    14     5     6 1   
    15     5    30 1   
    16     5    42 1   
    17     6    15 1   
    18     6    16 1   
    19     6    43 1   
    20     7    30 1   
    21     7    44 1   
    22     7    45 1   
    23     7    46 1   
    24     8    17 1   
    25     8    32 1   
    26     8    49 1   
    27     8    95 1   
    28     9    17 1   
    29     9    18 1   
    30     9    50 1   
    31     9    51 1   
    32    10    11 1   
    33    10    12 1   
    34    10    52 1   
    35    10    96 1   
    36    11    20 1   
    37    11    33 1   
    38    11    53 1   
    39    12    54 1   
    40    12    55 1   
    41    12    56 1   
    42    13    20 1   
    43    13    21 1   
    44    13    34 1   
    45    13    57 1   
    46    14    29 2   
    47    14    61 1   
    48    15    62 1   
    49    15    63 1   
    50    15    64 1   
    51    16    31 1   
    52    16    65 1   
    53    16    94 1   
    54    17    66 1   
    55    17    67 1   
    56    18    32 1   
    57    18    68 1   
    58    18    69 1   
    59    19    24 2   
    60    19    72 1   
    61    20    73 1   
    62    20    74 1   
    63    21    22 1   
    64    21    75 1   
    65    21    97 1   
    66    22    76 1   
    67    22    77 1   
    68    22    78 1   
    69    23    25 1   
    70    23    79 1   
    71    23    80 1   
    72    23    98 1   
    73    24    81 1   
    74    25    26 1   
    75    25    82 1   
    76    25    83 1   
    77    26    28 1   
    78    26    84 1   
    79    26    85 1   
    80    27    89 1   
    81    27    90 1   
    82    27    91 1   
    83    28    92 1   
    84    28    93 1   
    85    31    95 1   
    86    33    99 1   
    87    34    98 1   
    88    35    98 2   
    89    47    94 1   
    90    48    94 1   
    91    58    97 1   
    92    59    97 1   
    93    60    97 1   
    94    70    96 1   
    95    71    96 1   
    96    86    99 1   
    97    87    99 1   
    98    88    99 1   
    99    94    96 1   
   100    95   100 2   
@<TRIPOS>SUBSTRUCTURE
     1 TFJ         1 TEMP              0 ****  ****    0 ROOT
