@<TRIPOS>MOLECULE
TFJ
  100   100     1     0     0
SMALL
No Charge or Current Charge


@<TRIPOS>ATOM
      1 N1          -0.4820    14.6530    22.5590 n          1 TFJ      -0.330000
      2 C4          -3.5830    15.9870    24.4640 c3         1 TFJ      -0.026500
      3 C5          -0.8470    14.6530    21.1180 c3         1 TFJ       0.089000
      4 C6          -1.7180    13.4460    20.7200 c3         1 TFJ      -0.112100
      5 C7          -4.9390    15.2040    24.3990 c3         1 TFJ       0.179300
      6 C8          -4.8020    13.6470    24.4250 c3         1 TFJ      -0.068700
      7 C10         -6.7050    16.4770    23.2830 c3         1 TFJ       0.143900
      8 C15         -9.1470    13.5860    26.6980 c5         1 TFJ       0.106300
      9 C17        -10.2230    11.7020    27.8470 c5         1 TFJ      -0.116400
     10 C20         -7.5980     9.1820    23.6420 c3         1 TFJ      -0.087700
     11 C21         -9.0260     8.5370    23.7150 c3         1 TFJ       0.175300
     12 C22         -6.8420     8.7580    22.3560 c3         1 TFJ      -0.087100
     13 C24        -11.3750     8.2960    22.6470 c3         1 TFJ       0.183300
     14 C1           0.8050    14.1950    22.9360 c          1 TFJ       0.601900
     15 C11         -4.0220    13.1330    25.6670 c3         1 TFJ      -0.080100
     16 C12         -6.2400    12.9340    24.2970 c3         1 TFJ       0.175300
     17 C16        -10.4300    12.6800    26.6540 c5         1 TFJ      -0.098400
     18 C18         -8.6850    11.6670    27.9390 c5         1 TFJ       0.147600
     19 C2          -1.3840    15.0810    23.5680 c2         1 TFJ      -0.088400
     20 C23        -10.0060     9.0190    22.6130 c3         1 TFJ      -0.080400
     21 C25        -12.4230     8.8750    21.6400 c3         1 TFJ      -0.070700
     22 C27        -12.0030     8.7530    20.1520 c3         1 TFJ      -0.085600
     23 C29        -11.3700     4.5360    22.5020 c3         1 TFJ      -0.142400
     24 C3          -2.6220    15.5650    23.3660 c2         1 TFJ      -0.266200
     25 C30        -10.2060     3.9640    23.3470 c3         1 TFJ      -0.071400
     26 C31         -9.7530     2.5670    22.8750 c3         1 TFJ       0.148800
     27 C9          -3.7470    17.5230    24.4660 c3         1 TFJ      -0.084100
     28 N2          -8.6520     2.0470    23.7050 n8         1 TFJ      -0.993200
     29 O1           1.6450    13.7890    22.1380 o          1 TFJ      -0.583100
     30 O2          -5.6110    15.5470    23.1640 os         1 TFJ      -0.468000
     31 O3          -7.0720    13.2140    25.4740 os         1 TFJ      -0.434100
     32 O5          -8.3530    13.0570    27.7990 os         1 TFJ      -0.432000
     33 O6          -9.6500     8.8450    24.9830 os         1 TFJ      -0.463000
     34 O7         -11.1170     6.9130    22.3220 os         1 TFJ      -0.462100
     35 O8         -12.5790     6.1040    23.9070 o          1 TFJ      -0.484000
     36 H4          -3.1320    15.7520    25.4350 hc         1 TFJ       0.049700
     37 H6           0.0580    14.6590    20.4960 h1         1 TFJ       0.061200
     38 H5          -1.3840    15.5810    20.8850 h1         1 TFJ       0.061200
     39 H8          -1.9690    13.4930    19.6540 hc         1 TFJ       0.042700
     40 H7          -1.1830    12.5080    20.9080 hc         1 TFJ       0.042700
     41 H9          -2.6520    13.4320    21.2930 hc         1 TFJ       0.042700
     42 H10         -5.5470    15.4990    25.2660 h1         1 TFJ       0.046700
     43 H11         -4.2260    13.3520    23.5390 hc         1 TFJ       0.066700
     44 H17         -7.1490    16.6690    22.2980 h1         1 TFJ       0.033033
     45 H15         -7.4890    16.0730    23.9360 h1         1 TFJ       0.033033
     46 H16         -6.3750    17.4370    23.6990 h1         1 TFJ       0.033033
     47 H23         -5.7980    10.8950    24.9900 hc         1 TFJ       0.048200
     48 H22         -5.5580    11.1420    23.2650 hc         1 TFJ       0.048200
     49 H24         -9.3810    14.6380    26.9030 h1         1 TFJ       0.091700
     50 H28        -10.6620    12.0950    28.7720 hc         1 TFJ       0.062200
     51 H27        -10.6590    10.7130    27.6660 hc         1 TFJ       0.062200
     52 H33         -7.0140     8.7610    24.4690 hc         1 TFJ       0.046700
     53 H34         -8.9110     7.4490    23.6140 h1         1 TFJ       0.039700
     54 H36         -5.7750     8.9950    22.4300 hc         1 TFJ       0.035367
     55 H35         -6.9270     7.6760    22.1960 hc         1 TFJ       0.035367
     56 H37         -7.2420     9.2690    21.4710 hc         1 TFJ       0.035367
     57 H40        -11.7750     8.4070    23.6640 h1         1 TFJ       0.079700
     58 H44        -14.1470     8.3900    22.9030 hc         1 TFJ       0.036700
     59 H43        -14.5740     8.8270    21.2400 hc         1 TFJ       0.036700
     60 H42        -13.8790     7.2310    21.5790 hc         1 TFJ       0.036700
     61 H1           0.9770    14.2390    24.0280 h5         1 TFJ       0.013200
     62 H19         -3.9530    12.0400    25.6680 hc         1 TFJ       0.038367
     63 H20         -2.9930    13.5090    25.6770 hc         1 TFJ       0.038367
     64 H18         -4.5140    13.4460    26.5950 hc         1 TFJ       0.038367
     65 H21         -6.7000    13.3500    23.3900 h1         1 TFJ       0.080700
     66 H26        -11.3510    13.2650    26.7560 hc         1 TFJ       0.060700
     67 H25        -10.5090    12.1270    25.7110 hc         1 TFJ       0.060700
     68 H30         -8.3160    11.2800    28.8980 h1         1 TFJ       0.055700
     69 H29         -8.2290    11.0960    27.1180 h1         1 TFJ       0.055700
     70 H32         -8.0620    11.2020    22.9480 hc         1 TFJ       0.052200
     71 H31         -8.2730    10.9590    24.6760 hc         1 TFJ       0.052200
     72 H2          -0.9880    14.9770    24.5800 h4         1 TFJ       0.180000
     73 H38         -9.5460     8.8650    21.6320 hc         1 TFJ       0.058700
     74 H39        -10.1720    10.0970    22.7220 hc         1 TFJ       0.058700
     75 H41        -12.5010     9.9480    21.8580 hc         1 TFJ       0.049700
     76 H45        -12.7720     9.1840    19.4990 hc         1 TFJ       0.036700
     77 H47        -11.0690     9.2920    19.9550 hc         1 TFJ       0.036700
     78 H46        -11.8650     7.7040    19.8640 hc         1 TFJ       0.036700
     79 H49        -11.0160     4.6160    21.4670 hc         1 TFJ       0.067200
     80 H48        -12.2290     3.8590    22.5670 hc         1 TFJ       0.067200
     81 H3          -3.0350    15.6710    22.3630 ha         1 TFJ       0.192000
     82 H50        -10.5180     3.9050    24.3970 hc         1 TFJ       0.061200
     83 H51         -9.3550     4.6560    23.3030 hc         1 TFJ       0.061200
     84 H53         -9.4130     2.6190    21.8310 h1         1 TFJ       0.025700
     85 H52        -10.5970     1.8660    22.9320 h1         1 TFJ       0.025700
     86 H56         -9.7250     8.4010    27.0230 h1         1 TFJ       0.028367
     87 H58         -9.0150     7.1280    26.0090 h1         1 TFJ       0.028367
     88 H57         -8.0900     8.6090    26.3760 h1         1 TFJ       0.028367
     89 H12         -4.4540    17.8390    25.2420 hc         1 TFJ       0.037367
     90 H14         -2.7840    18.0080    24.6670 hc         1 TFJ       0.037367
     91 H13         -4.1060    17.8850    23.4950 hc         1 TFJ       0.037367
     92 H55         -8.3500     1.1400    23.3290 hn         1 TFJ       0.393000
     93 H60         -7.8260     2.6450    23.5800 hn         1 TFJ       0.393000
     94 C13         -6.2300    11.3680    24.1010 c3         1 TFJ      -0.089400
     95 C14         -8.4040    13.5260    25.3150 c          1 TFJ       0.575100
     96 C19         -7.6160    10.7280    23.8310 c3         1 TFJ      -0.075400
     97 C26        -13.8400     8.2920    21.8550 c3         1 TFJ      -0.085600
     98 C28        -11.7790     5.9220    23.0000 c          1 TFJ       0.600100
     99 C32         -9.0880     8.2140    26.1490 c3         1 TFJ       0.149900
    100 O4          -8.9290    13.7230    24.2250 o          1 TFJ      -0.506000
@<TRIPOS>BOND
     1     1     3 1   
     2     1    14 1   
     3     1    19 1   
     4     2     5 1   
     5     2    24 1   
     6     2    27 1   
     7     2    36 1   
     8     3     4 1   
     9     3    37 1   
    10     3    38 1   
    11     4    39 1   
    12     4    40 1   
    13     4    41 1   
    14     5     6 1   
    15     5    30 1   
    16     5    42 1   
    17     6    15 1   
    18     6    16 1   
    19     6    43 1   
    20     7    30 1   
    21     7    44 1   
    22     7    45 1   
    23     7    46 1   
    24     8    17 1   
    25     8    32 1   
    26     8    49 1   
    27     8    95 1   
    28     9    17 1   
    29     9    18 1   
    30     9    50 1   
    31     9    51 1   
    32    10    11 1   
    33    10    12 1   
    34    10    52 1   
    35    10    96 1   
    36    11    20 1   
    37    11    33 1   
    38    11    53 1   
    39    12    54 1   
    40    12    55 1   
    41    12    56 1   
    42    13    20 1   
    43    13    21 1   
    44    13    34 1   
    45    13    57 1   
    46    14    29 2   
    47    14    61 1   
    48    15    62 1   
    49    15    63 1   
    50    15    64 1   
    51    16    31 1   
    52    16    65 1   
    53    16    94 1   
    54    17    66 1   
    55    17    67 1   
    56    18    32 1   
    57    18    68 1   
    58    18    69 1   
    59    19    24 2   
    60    19    72 1   
    61    20    73 1   
    62    20    74 1   
    63    21    22 1   
    64    21    75 1   
    65    21    97 1   
    66    22    76 1   
    67    22    77 1   
    68    22    78 1   
    69    23    25 1   
    70    23    79 1   
    71    23    80 1   
    72    23    98 1   
    73    24    81 1   
    74    25    26 1   
    75    25    82 1   
    76    25    83 1   
    77    26    28 1   
    78    26    84 1   
    79    26    85 1   
    80    27    89 1   
    81    27    90 1   
    82    27    91 1   
    83    28    92 1   
    84    28    93 1   
    85    31    95 1   
    86    33    99 1   
    87    34    98 1   
    88    35    98 2   
    89    47    94 1   
    90    48    94 1   
    91    58    97 1   
    92    59    97 1   
    93    60    97 1   
    94    70    96 1   
    95    71    96 1   
    96    86    99 1   
    97    87    99 1   
    98    88    99 1   
    99    94    96 1   
   100    95   100 2   
@<TRIPOS>SUBSTRUCTURE
     1 TFJ         1 TEMP              0 ****  ****    0 ROOT
