@<TRIPOS>MOLECULE
TFK
   56    57     1     0     0
SMALL
bcc


@<TRIPOS>ATOM
      1 C1          -0.1830    -1.7850    -4.2490 c3         1 TFK       0.565900
      2 C2          -0.4570    -0.3170    -3.8750 c          1 TFK       0.498100
      3 C3          -1.6090    -0.0330    -2.9160 c3         1 TFK       0.032700
      4 C4          -2.7480     0.7820    -3.5640 c3         1 TFK      -0.064700
      5 C5          -2.3660     2.1980    -3.9820 c3         1 TFK      -0.095100
      6 C6          -3.3740     0.0290    -4.7340 c3         1 TFK      -0.095100
      7 C8          -0.1530     0.9240     0.4410 c3         1 TFK      -0.006000
      8 C9          -0.2980    -0.1710     2.5840 c          1 TFK       0.686700
      9 C10          0.3680    -0.9150     3.6280 cc         1 TFK      -0.058200
     10 C11          1.6580    -1.3210     3.4860 cd         1 TFK      -0.012000
     11 C12          2.3850    -0.9740     2.3300 cd         1 TFK      -0.213000
     12 C13          1.7870    -0.2500     1.3480 cc         1 TFK       0.124400
     13 C14          2.5140     0.1050     0.1060 ca         1 TFK      -0.099800
     14 C15          3.3490     1.2180     0.0790 ca         1 TFK      -0.107500
     15 C16          4.0350     1.5430    -1.0840 ca         1 TFK      -0.130000
     16 C17          3.8930     0.7580    -2.2200 ca         1 TFK      -0.106000
     17 C18          3.0680    -0.3580    -2.1920 ca         1 TFK      -0.130000
     18 C19          2.3810    -0.6860    -1.0320 ca         1 TFK      -0.107500
     19 C20         -1.4540     1.7480     5.7980 c3         1 TFK       0.177100
     20 N1          -1.0600     0.6370    -1.7600 ns         1 TFK      -0.575900
     21 N2           0.4880     0.1580     1.4890 n          1 TFK      -0.309000
     22 N4          -0.1550     1.1490     6.0770 n7         1 TFK      -0.843100
     23 O1           0.2780     0.5290    -4.2960 o          1 TFK      -0.444100
     24 O3          -1.4790     0.1610     2.6410 o          1 TFK      -0.653500
     25 O4           1.3630    -0.7520     6.4850 o          1 TFK      -0.608800
     26 O5          -1.0730    -0.9160     7.1260 o          1 TFK      -0.608800
     27 F1           0.7960    -1.8860    -5.1340 f          1 TFK      -0.220967
     28 F2           0.1720    -2.4610    -3.1520 f          1 TFK      -0.220967
     29 F3          -1.2700    -2.3690    -4.7540 f          1 TFK      -0.220967
     30 S1          -0.0330    -0.4770     6.2180 s6         1 TFK       1.390800
     31 H3          -2.0420    -0.9720    -2.5700 h1         1 TFK       0.108700
     32 H4          -3.5000     0.8590    -2.7730 hc         1 TFK       0.066700
     33 H51         -3.2630     2.7250    -4.3090 hc         1 TFK       0.043200
     34 H52         -1.9430     2.7870    -3.1670 hc         1 TFK       0.043200
     35 H53         -1.6620     2.2140    -4.8130 hc         1 TFK       0.043200
     36 H61         -2.6950    -0.0480    -5.5850 hc         1 TFK       0.043200
     37 H62         -3.6890    -0.9750    -4.4520 hc         1 TFK       0.043200
     38 H63         -4.2580     0.5650    -5.0790 hc         1 TFK       0.043200
     39 H81         -0.9410     1.5340     0.8810 h1         1 TFK       0.090700
     40 H82          0.5640     1.6080    -0.0120 h1         1 TFK       0.090700
     41 H11          2.1300    -1.9190     4.2520 ha         1 TFK       0.175000
     42 H12          3.4070    -1.2960     2.2050 ha         1 TFK       0.164000
     43 H15          3.4580     1.8320     0.9640 ha         1 TFK       0.147000
     44 H16          4.6830     2.4100    -1.0990 ha         1 TFK       0.140500
     45 H17          4.4300     1.0120    -3.1250 ha         1 TFK       0.140000
     46 H18          2.9650    -0.9780    -3.0720 ha         1 TFK       0.140500
     47 H19          1.7450    -1.5620    -1.0080 ha         1 TFK       0.147000
     48 H201        -1.3160     2.8260     5.7870 h1         1 TFK       0.055033
     49 H202        -1.8750     1.4430     4.8380 h1         1 TFK       0.055033
     50 H203        -2.1540     1.5080     6.5940 h1         1 TFK       0.055033
     51 HN1         -0.7830     1.6010    -1.8640 hn         1 TFK       0.325500
     52 HN3         -1.3990    -1.2340     4.5930 hn         1 TFK       0.446800
     53 HN4          0.6190     1.5530     5.5620 hn         1 TFK       0.424800
     54 C7          -0.7660     0.0070    -0.6070 c          1 TFK       0.658100
     55 N3          -0.3980    -1.2300     4.7680 nu         1 TFK      -0.672900
     56 O2          -0.9740    -1.1710    -0.3930 o          1 TFK      -0.561100
@<TRIPOS>BOND
     1     1     2 1   
     2     1    27 1   
     3     1    28 1   
     4     1    29 1   
     5     2     3 1   
     6     2    23 2   
     7     3     4 1   
     8     3    20 1   
     9     3    31 1   
    10     4     5 1   
    11     4     6 1   
    12     4    32 1   
    13     5    33 1   
    14     5    34 1   
    15     5    35 1   
    16     6    36 1   
    17     6    37 1   
    18     6    38 1   
    19     7    21 1   
    20     7    39 1   
    21     7    40 1   
    22     7    54 1   
    23     8     9 1   
    24     8    21 1   
    25     8    24 2   
    26     9    10 2   
    27     9    55 1   
    28    10    11 1   
    29    10    41 1   
    30    11    12 2   
    31    11    42 1   
    32    12    13 1   
    33    12    21 1   
    34    13    14 ar  
    35    13    18 ar  
    36    14    15 ar  
    37    14    43 1   
    38    15    16 ar  
    39    15    44 1   
    40    16    17 ar  
    41    16    45 1   
    42    17    18 ar  
    43    17    46 1   
    44    18    47 1   
    45    19    22 1   
    46    19    48 1   
    47    19    49 1   
    48    19    50 1   
    49    20    51 1   
    50    20    54 1   
    51    22    30 1   
    52    22    53 1   
    53    25    30 2   
    54    26    30 2   
    55    30    55 1   
    56    52    55 1   
    57    54    56 2   
@<TRIPOS>SUBSTRUCTURE
     1 TFK         1 TEMP              0 ****  ****    0 ROOT
