@<TRIPOS>MOLECULE
TFK
   56    57     1     0     0
SMALL
No Charge or Current Charge


@<TRIPOS>ATOM
      1 C1           0.6870    -0.1280    -5.4680 c3         1 TFK       0.202000
      2 C2          -0.3340     0.7400    -4.6870 c          1 TFK       0.498100
      3 C3          -1.0950     0.0330    -3.5260 c3         1 TFK       0.032700
      4 C4          -2.6240    -0.1640    -3.7750 c3         1 TFK      -0.064700
      5 C5          -3.4310     1.1590    -3.8090 c3         1 TFK      -0.095100
      6 C6          -2.9170    -1.0230    -5.0270 c3         1 TFK      -0.095100
      7 C8          -0.4850     1.1160     0.1470 c3         1 TFK      -0.006000
      8 C9          -0.8650     0.3850     2.5150 c          1 TFK       0.544200
      9 C10         -0.3250    -0.3350     3.7210 cc         1 TFK      -0.058200
     10 C11          0.9280    -0.9220     3.7090 cd         1 TFK      -0.062000
     11 C12          1.7400    -0.8260     2.5280 cd         1 TFK      -0.263000
     12 C13          1.2530    -0.1550     1.4310 cc         1 TFK       0.124400
     13 C14          2.1500    -0.1040     0.2770 ca         1 TFK      -0.099800
     14 C15          2.8290     1.0870    -0.0480 ca         1 TFK      -0.089500
     15 C16          3.6700     1.1380    -1.1740 ca         1 TFK      -0.112000
     16 C17          3.8390    -0.0020    -1.9780 ca         1 TFK      -0.088000
     17 C18          3.1710    -1.1950    -1.6530 ca         1 TFK      -0.112000
     18 C19          2.3320    -1.2460    -0.5270 ca         1 TFK      -0.089500
     19 C20          0.6750     1.8160     7.4040 c3         1 TFK       0.177100
     20 N1          -0.8330     0.7510    -2.2580 ns         1 TFK      -0.508900
     21 N2          -0.0060     0.4420     1.3940 n          1 TFK      -0.242000
     22 N4           0.5190     0.7920     6.3550 n7         1 TFK      -0.898300
     23 O1          -0.4900     1.9360    -4.9200 o          1 TFK      -0.444100
     24 O3          -1.9820     0.8980     2.5120 o          1 TFK      -0.578000
     25 O4          -0.2820    -1.5430     6.8860 o          1 TFK      -0.538000
     26 O5          -1.8840     0.4540     7.0570 o          1 TFK      -0.538000
     27 F1           1.2290     0.5450    -6.5120 f          1 TFK      -0.099667
     28 F2           1.7080    -0.5170    -4.6700 f          1 TFK      -0.099667
     29 F3           0.1180    -1.2480    -5.9700 f          1 TFK      -0.099667
     30 S1          -0.7660    -0.2420     6.4270 s6         1 TFK       1.249200
     31 H3          -0.6480    -0.9670    -3.4340 h1         1 TFK       0.108700
     32 H4          -3.0060    -0.7340    -2.9180 hc         1 TFK       0.066700
     33 H51         -4.5060     0.9500    -3.8810 hc         1 TFK       0.043200
     34 H52         -3.2700     1.7480    -2.8980 hc         1 TFK       0.043200
     35 H53         -3.1530     1.7740    -4.6720 hc         1 TFK       0.043200
     36 H61         -2.6070    -0.5070    -5.9440 hc         1 TFK       0.043200
     37 H62         -2.3900    -1.9830    -4.9720 hc         1 TFK       0.043200
     38 H63         -3.9900    -1.2350    -5.1060 hc         1 TFK       0.043200
     39 H81         -1.3900     1.7050     0.3320 h1         1 TFK       0.090700
     40 H82          0.2790     1.8220    -0.1960 h1         1 TFK       0.090700
     41 H11          1.2990    -1.4570     4.5800 ha         1 TFK       0.225000
     42 H12          2.7290    -1.2780     2.5010 ha         1 TFK       0.214000
     43 H15          2.7030     1.9730     0.5710 ha         1 TFK       0.129000
     44 H16          4.1890     2.0610    -1.4240 ha         1 TFK       0.122500
     45 H17          4.4880     0.0380    -2.8510 ha         1 TFK       0.122000
     46 H18          3.3020    -2.0780    -2.2740 ha         1 TFK       0.122500
     47 H19          1.8100    -2.1690    -0.2840 ha         1 TFK       0.129000
     48 H201         1.5660     2.4310     7.2150 h1         1 TFK       0.055033
     49 H202        -0.1930     2.4890     7.4440 h1         1 TFK       0.055033
     50 H203         0.7930     1.3520     8.3930 h1         1 TFK       0.055033
     51 HN1         -0.6630     1.7520    -2.2950 hn         1 TFK       0.325500
     52 HN3         -2.0680     0.0920     4.7490 hn         1 TFK       0.502000
     53 HN4          0.3550     1.2260     5.4500 hn         1 TFK       0.480000
     54 C7          -0.7990     0.1580    -1.0130 c          1 TFK       0.591100
     55 N3          -1.1820    -0.3980     4.8320 nu         1 TFK      -0.728100
     56 O2          -1.0110    -1.0380    -0.8620 o          1 TFK      -0.561100
@<TRIPOS>BOND
     1     1     2 1   
     2     1    27 1   
     3     1    28 1   
     4     1    29 1   
     5     2     3 1   
     6     2    23 2   
     7     3     4 1   
     8     3    20 1   
     9     3    31 1   
    10     4     5 1   
    11     4     6 1   
    12     4    32 1   
    13     5    33 1   
    14     5    34 1   
    15     5    35 1   
    16     6    36 1   
    17     6    37 1   
    18     6    38 1   
    19     7    21 1   
    20     7    39 1   
    21     7    40 1   
    22     7    54 1   
    23     8     9 1   
    24     8    21 1   
    25     8    24 2   
    26     9    10 2   
    27     9    55 1   
    28    10    11 1   
    29    10    41 1   
    30    11    12 2   
    31    11    42 1   
    32    12    13 1   
    33    12    21 1   
    34    13    14 ar  
    35    13    18 ar  
    36    14    15 ar  
    37    14    43 1   
    38    15    16 ar  
    39    15    44 1   
    40    16    17 ar  
    41    16    45 1   
    42    17    18 ar  
    43    17    46 1   
    44    18    47 1   
    45    19    22 1   
    46    19    48 1   
    47    19    49 1   
    48    19    50 1   
    49    20    51 1   
    50    20    54 1   
    51    22    30 1   
    52    22    53 1   
    53    25    30 2   
    54    26    30 2   
    55    30    55 1   
    56    52    55 1   
    57    54    56 2   
@<TRIPOS>SUBSTRUCTURE
     1 TFK         1 TEMP              0 ****  ****    0 ROOT
