@<TRIPOS>MOLECULE
TFL
   37    39     1     0     0
SMALL
No Charge or Current Charge


@<TRIPOS>ATOM
      1 C2          -5.5290    -0.2070     8.3860 ca         1 TFL       0.407000
      2 C3          -6.1330    -0.0200     7.1310 ca         1 TFL      -0.206500
      3 C4          -5.3550     0.1320     5.9720 ca         1 TFL       0.001500
      4 C5          -3.9490     0.1060     6.0510 ca         1 TFL      -0.301900
      5 C6          -3.3400    -0.0970     7.3060 ca         1 TFL       0.001500
      6 C7          -4.1260    -0.2470     8.4590 ca         1 TFL      -0.206500
      7 C8          -3.1440     0.2510     4.8280 cc         1 TFL       0.300800
      8 N1          -1.9460     0.9760     4.7460 na         1 TFL      -0.081500
      9 C9          -1.2990     0.7830     3.5310 ca         1 TFL      -0.101200
     10 S1          -3.5530    -0.6110     3.3250 ss         1 TFL       0.279800
     11 C10         -2.0070    -0.0280     2.6600 ca         1 TFL      -0.170000
     12 C11         -1.5100    -0.3390     1.3820 ca         1 TFL      -0.162000
     13 C12         -0.2640     0.1870     0.9920 ca         1 TFL       0.187100
     14 C13          0.4640     1.0050     1.8760 ca         1 TFL      -0.095000
     15 C14         -0.0460     1.3090     3.1540 ca         1 TFL      -0.047000
     16 O3           0.2470    -0.0960    -0.2410 oh         1 TFL      -0.501100
     17 N2          -6.3190    -0.3600     9.5540 nh         1 TFL      -0.779400
     18 C15         -7.6730    -0.9640     9.5000 c3         1 TFL       0.198100
     19 C16         -5.8280     0.0790    10.8840 c3         1 TFL       0.198100
     20 C17         -1.4290     1.9460     5.7340 c3         1 TFL       0.031900
     21 H3          -7.2140     0.0240     7.0460 ha         1 TFL       0.136500
     22 H4          -5.8540     0.2840     5.0160 ha         1 TFL       0.119500
     23 H6          -2.2560    -0.1590     7.3940 ha         1 TFL       0.119500
     24 H7          -3.6340    -0.4140     9.4110 ha         1 TFL       0.136500
     25 H11         -2.0830    -0.9770     0.7120 ha         1 TFL       0.148000
     26 H13          1.4280     1.4040     1.5690 ha         1 TFL       0.161000
     27 H14          0.5330     1.9370     3.8270 ha         1 TFL       0.144000
     28 HA          -0.3860    -0.6730    -0.7180 ho         1 TFL       0.488000
     29 H151        -7.9370    -1.4210    10.4640 h1         1 TFL       0.056867
     30 H152        -7.7160    -1.7550     8.7390 h1         1 TFL       0.056867
     31 H153        -8.4280    -0.2030     9.2590 h1         1 TFL       0.056867
     32 H161        -6.6660     0.3290    11.5480 h1         1 TFL       0.056867
     33 H162        -5.2040     0.9780    10.7900 h1         1 TFL       0.056867
     34 H163        -5.2340    -0.7140    11.3580 h1         1 TFL       0.056867
     35 H171        -1.1120     2.8650     5.2260 h1         1 TFL       0.084367
     36 H172        -2.2120     2.2080     6.4560 h1         1 TFL       0.084367
     37 H173        -0.5750     1.5110     6.2670 h1         1 TFL       0.084367
@<TRIPOS>BOND
     1     1     2 ar  
     2     1     6 ar  
     3     1    17 1   
     4     2     3 ar  
     5     2    21 1   
     6     3     4 ar  
     7     3    22 1   
     8     4     5 ar  
     9     4     7 1   
    10     5     6 ar  
    11     5    23 1   
    12     6    24 1   
    13     7     8 2   
    14     7    10 1   
    15     8     9 1   
    16     8    20 1   
    17     9    11 ar  
    18     9    15 ar  
    19    10    11 1   
    20    11    12 ar  
    21    12    13 ar  
    22    12    25 1   
    23    13    14 ar  
    24    13    16 1   
    25    14    15 ar  
    26    14    26 1   
    27    15    27 1   
    28    16    28 1   
    29    17    18 1   
    30    17    19 1   
    31    18    29 1   
    32    18    30 1   
    33    18    31 1   
    34    19    32 1   
    35    19    33 1   
    36    19    34 1   
    37    20    35 1   
    38    20    36 1   
    39    20    37 1   
@<TRIPOS>SUBSTRUCTURE
     1 TFL         1 TEMP              0 ****  ****    0 ROOT
