@<TRIPOS>MOLECULE
TFL
   37    39     1     0     0
SMALL
bcc


@<TRIPOS>ATOM
      1 C2          -5.5090    -0.2200     8.4070 ca         1 TFL       0.268600
      2 C3          -6.0400    -0.2610     7.0950 ca         1 TFL      -0.224500
      3 C4          -5.2270    -0.1330     5.9970 ca         1 TFL      -0.016500
      4 C5          -3.8420     0.0610     6.1290 ca         1 TFL      -0.301900
      5 C6          -3.3070     0.0820     7.4260 ca         1 TFL      -0.016500
      6 C7          -4.1070    -0.0570     8.5320 ca         1 TFL      -0.224500
      7 C8          -3.0170     0.1600     4.9580 cc         1 TFL       0.300800
      8 N1          -1.9380     0.9100     4.7980 na         1 TFL      -0.052200
      9 C9          -1.3100     0.7570     3.5670 ca         1 TFL      -0.101200
     10 S1          -3.3600    -0.7800     3.5600 ss         1 TFL       0.152900
     11 C10         -1.9870    -0.1250     2.7340 ca         1 TFL      -0.043100
     12 C11         -1.5530    -0.4080     1.4490 ca         1 TFL      -0.180000
     13 C12         -0.3950     0.2190     1.0090 ca         1 TFL       0.187100
     14 C13          0.3000     1.1030     1.8520 ca         1 TFL      -0.113000
     15 C14         -0.1460     1.3780     3.1250 ca         1 TFL      -0.065000
     16 O3           0.1180     0.0180    -0.2120 oh         1 TFL      -0.462100
     17 N2          -6.3010    -0.3360     9.4900 nh         1 TFL      -0.641000
     18 C15         -7.7320    -0.4960     9.3350 c3         1 TFL       0.198100
     19 C16         -5.7280    -0.2960    10.8190 c3         1 TFL       0.198100
     20 C17         -1.4710     1.9120     5.7490 c3         1 TFL       0.002600
     21 H3          -7.1000    -0.3850     6.9330 ha         1 TFL       0.154500
     22 H4          -5.6840    -0.1520     5.0160 ha         1 TFL       0.137500
     23 H6          -2.2390     0.1630     7.5790 ha         1 TFL       0.137500
     24 H7          -3.6370    -0.0490     9.5040 ha         1 TFL       0.154500
     25 H11         -2.0970    -1.0980     0.8170 ha         1 TFL       0.166000
     26 H13          1.2050     1.5730     1.4900 ha         1 TFL       0.179000
     27 H14          0.4110     2.0560     3.7570 ha         1 TFL       0.162000
     28 HA          -0.4160    -0.6080    -0.7140 ho         1 TFL       0.449000
     29 H151        -8.1970    -0.5350    10.3150 h1         1 TFL       0.056867
     30 H152        -7.9850    -1.4190     8.8090 h1         1 TFL       0.056867
     31 H153        -8.1740     0.3410     8.7890 h1         1 TFL       0.056867
     32 H161        -6.5180    -0.4170    11.5530 h1         1 TFL       0.056867
     33 H162        -5.2290     0.6550    11.0180 h1         1 TFL       0.056867
     34 H163        -5.0050    -1.1000    10.9730 h1         1 TFL       0.056867
     35 H171        -1.1480     2.7900     5.1970 h1         1 TFL       0.084367
     36 H172        -2.2850     2.1990     6.4060 h1         1 TFL       0.084367
     37 H173        -0.6400     1.5240     6.3330 h1         1 TFL       0.084367
@<TRIPOS>BOND
     1     1     2 ar  
     2     1     6 ar  
     3     1    17 1   
     4     2     3 ar  
     5     2    21 1   
     6     3     4 ar  
     7     3    22 1   
     8     4     5 ar  
     9     4     7 1   
    10     5     6 ar  
    11     5    23 1   
    12     6    24 1   
    13     7     8 2   
    14     7    10 1   
    15     8     9 1   
    16     8    20 1   
    17     9    11 ar  
    18     9    15 ar  
    19    10    11 1   
    20    11    12 ar  
    21    12    13 ar  
    22    12    25 1   
    23    13    14 ar  
    24    13    16 1   
    25    14    15 ar  
    26    14    26 1   
    27    15    27 1   
    28    16    28 1   
    29    17    18 1   
    30    17    19 1   
    31    18    29 1   
    32    18    30 1   
    33    18    31 1   
    34    19    32 1   
    35    19    33 1   
    36    19    34 1   
    37    20    35 1   
    38    20    36 1   
    39    20    37 1   
@<TRIPOS>SUBSTRUCTURE
     1 TFL         1 TEMP              0 ****  ****    0 ROOT
