@<TRIPOS>MOLECULE
TFM
   27    27     1     0     0
SMALL
No Charge or Current Charge


@<TRIPOS>ATOM
      1 N1          -1.9770     0.4880     2.0370 nv         1 TFM      -1.068200
      2 C           -0.7720     0.0990     2.5140 c2         1 TFM       0.718100
      3 S           -0.6880     0.0930     4.2870 ss         1 TFM      -0.315200
      4 N2           0.2400    -0.0830     1.7390 ne         1 TFM      -0.710100
      5 C1           0.1880    -0.0680     0.3310 ca         1 TFM       0.200400
      6 C2           0.9910     0.8370    -0.3790 ca         1 TFM      -0.147000
      7 C3           0.9680     0.8620    -1.7840 ca         1 TFM      -0.045500
      8 C4           0.1370    -0.0270    -2.5000 ca         1 TFM      -0.223300
      9 C5          -0.6520    -0.9520    -1.7820 ca         1 TFM      -0.045500
     10 C6          -0.6240    -0.9710    -0.3770 ca         1 TFM      -0.147000
     11 C7           1.0730    -0.3780     4.5920 c3         1 TFM       0.077600
     12 C8           1.3530    -0.4520     6.1030 c3         1 TFM      -0.089100
     13 CM           0.1180    -0.0110    -4.0330 c3         1 TFM       0.359300
     14 F1          -1.0770    -0.3990    -4.5370 f          1 TFM      -0.116333
     15 F2           0.3670     1.2190    -4.5380 f          1 TFM      -0.116333
     16 F3           1.0510    -0.8440    -4.5440 f          1 TFM      -0.116333
     17 HN11        -1.9050     0.9050     1.1190 hn         1 TFM       0.486500
     18 HN12        -2.5200     1.0200     2.7050 hn         1 TFM       0.486500
     19 H21          1.6360     1.5250     0.1620 ha         1 TFM       0.127000
     20 H31          1.6020     1.5720    -2.3120 ha         1 TFM       0.127000
     21 H51         -1.2860    -1.6630    -2.3090 ha         1 TFM       0.127000
     22 H61         -1.2320    -1.6910     0.1620 ha         1 TFM       0.127000
     23 H1'1         1.7330     0.3670     4.1280 h1         1 TFM       0.079700
     24 H1'2         1.2710    -1.3530     4.1290 h1         1 TFM       0.079700
     25 H2'1         2.3980    -0.7310     6.2840 hc         1 TFM       0.047367
     26 H2'2         1.1690     0.5190     6.5780 hc         1 TFM       0.047367
     27 H2'3         0.7090    -1.2000     6.5790 hc         1 TFM       0.047367
@<TRIPOS>BOND
     1     1     2 1   
     2     1    17 1   
     3     1    18 1   
     4     2     3 1   
     5     2     4 2   
     6     3    11 1   
     7     4     5 1   
     8     5     6 ar  
     9     5    10 ar  
    10     6     7 ar  
    11     6    19 1   
    12     7     8 ar  
    13     7    20 1   
    14     8     9 ar  
    15     8    13 1   
    16     9    10 ar  
    17     9    21 1   
    18    10    22 1   
    19    11    12 1   
    20    11    23 1   
    21    11    24 1   
    22    12    25 1   
    23    12    26 1   
    24    12    27 1   
    25    13    14 1   
    26    13    15 1   
    27    13    16 1   
@<TRIPOS>SUBSTRUCTURE
     1 TFM         1 TEMP              0 ****  ****    0 ROOT
