@<TRIPOS>MOLECULE
TFM
   27    27     1     0     0
SMALL
abcg2


@<TRIPOS>ATOM
      1 N1          -2.0280     0.6100     2.1070 nv         1 TFM      -1.068200
      2 C           -0.7820     0.2660     2.4980 c2         1 TFM       0.718100
      3 S           -0.6280     0.1620     4.2540 ss         1 TFM      -0.315200
      4 N2           0.2280     0.0110     1.7600 ne         1 TFM      -0.710100
      5 C1           0.1480    -0.0020     0.3760 ca         1 TFM       0.200400
      6 C2           1.0360     0.7930    -0.3600 ca         1 TFM      -0.147000
      7 C3           1.0410     0.7610    -1.7400 ca         1 TFM      -0.045500
      8 C4           0.1620    -0.0740    -2.4290 ca         1 TFM      -0.223300
      9 C5          -0.7170    -0.8750    -1.7120 ca         1 TFM      -0.045500
     10 C6          -0.7260    -0.8390    -0.3270 ca         1 TFM      -0.147000
     11 C7           1.1090    -0.3190     4.4630 c3         1 TFM       0.077600
     12 C8           1.3700    -0.5450     5.9420 c3         1 TFM      -0.089100
     13 CM           0.2030    -0.0910    -3.9190 c3         1 TFM       0.359300
     14 F1          -0.6850    -0.9350    -4.4530 f          1 TFM      -0.116333
     15 F2          -0.0480     1.1200    -4.4430 f          1 TFM      -0.116333
     16 F3           1.4110    -0.4530    -4.3830 f          1 TFM      -0.116333
     17 HN11        -2.1900     0.8740     1.1480 hn         1 TFM       0.486500
     18 HN12        -2.6800     0.9910     2.7720 hn         1 TFM       0.486500
     19 H21          1.7310     1.4340     0.1680 ha         1 TFM       0.127000
     20 H31          1.7410     1.3910    -2.2750 ha         1 TFM       0.127000
     21 H51         -1.4050    -1.5380    -2.2170 ha         1 TFM       0.127000
     22 H61         -1.4070    -1.4850     0.2130 ha         1 TFM       0.127000
     23 H1'1         1.7430     0.4720     4.0650 h1         1 TFM       0.079700
     24 H1'2         1.2930    -1.2250     3.8890 h1         1 TFM       0.079700
     25 H2'1         2.4140    -0.8240     6.0820 hc         1 TFM       0.047367
     26 H2'2         1.1850     0.3540     6.5310 hc         1 TFM       0.047367
     27 H2'3         0.7530    -1.3490     6.3430 hc         1 TFM       0.047367
@<TRIPOS>BOND
     1     1     2 1   
     2     1    17 1   
     3     1    18 1   
     4     2     3 1   
     5     2     4 2   
     6     3    11 1   
     7     4     5 1   
     8     5     6 ar  
     9     5    10 ar  
    10     6     7 ar  
    11     6    19 1   
    12     7     8 ar  
    13     7    20 1   
    14     8     9 ar  
    15     8    13 1   
    16     9    10 ar  
    17     9    21 1   
    18    10    22 1   
    19    11    12 1   
    20    11    23 1   
    21    11    24 1   
    22    12    25 1   
    23    12    26 1   
    24    12    27 1   
    25    13    14 1   
    26    13    15 1   
    27    13    16 1   
@<TRIPOS>SUBSTRUCTURE
     1 TFM         1 TEMP              0 ****  ****    0 ROOT
