@<TRIPOS>MOLECULE
TFN
   68    69     1     0     0
SMALL
No Charge or Current Charge


@<TRIPOS>ATOM
      1 C7          -5.1030     0.4960    -0.1470 c3         1 TFN      -0.250100
      2 S8          -3.3700     0.1920    -0.5300 s6         1 TFN       1.184100
      3 C5          -5.4610     1.9700     0.0130 ca         1 TFN      -0.082300
      4 C4          -5.8930     2.7190    -1.0990 ca         1 TFN      -0.085000
      5 C3          -6.2230     4.0780    -0.9510 ca         1 TFN      -0.110000
      6 C2          -6.1250     4.6940     0.3080 ca         1 TFN      -0.100000
      7 C1          -5.6960     3.9490     1.4200 ca         1 TFN      -0.110000
      8 C6          -5.3650     2.5910     1.2730 ca         1 TFN      -0.085000
      9 O35         -3.0740     0.7100    -1.8670 o          1 TFN      -0.531000
     10 O34         -2.5300     0.5380     0.6160 o          1 TFN      -0.531000
     11 N9          -3.3330    -1.4660    -0.6580 n7         1 TFN      -0.882300
     12 C10         -2.0840    -2.1450    -1.1470 c3         1 TFN       0.149500
     13 C11         -2.2910    -3.6820    -1.1750 c3         1 TFN       0.168600
     14 O12         -2.7680    -4.1180     0.1260 os         1 TFN      -0.471000
     15 C13         -3.0190    -5.5280     0.3400 c3         1 TFN       0.192000
     16 C15         -1.6970    -6.3150     0.1600 c3         1 TFN      -0.107100
     17 C16         -3.5110    -5.6240     1.8010 c3         1 TFN      -0.107100
     18 C14         -4.1230    -6.0060    -0.6370 c3         1 TFN      -0.107100
     19 C17         -0.7770    -1.7810    -0.3570 c          1 TFN       0.589100
     20 O18         -0.6010    -2.0470     0.8260 o          1 TFN      -0.598100
     21 N19          0.1880    -1.1110    -1.0840 ns         1 TFN      -0.489900
     22 C20          1.4860    -0.6570    -0.5330 c3         1 TFN       0.021000
     23 C21          2.3500     0.0570    -1.5980 c          1 TFN       0.589100
     24 O22          1.9900     0.2150    -2.7580 o          1 TFN      -0.614100
     25 N23          3.5700     0.5080    -1.1490 ns         1 TFN      -0.499900
     26 C24          4.5450     1.2080    -1.9810 c3         1 TFN       0.147300
     27 C25          5.7870     1.5670    -1.1810 ca         1 TFN      -0.105300
     28 C30          6.8700     0.6740    -1.1090 ca         1 TFN      -0.104500
     29 C29          8.0180     1.0040    -0.3670 ca         1 TFN      -0.080000
     30 C28          8.1010     2.2310     0.3330 ca         1 TFN      -0.133900
     31 C31          9.3460     2.5850     1.0940 ce         1 TFN       0.655800
     32 N32         10.4590     1.9980     0.9240 n2         1 TFN      -0.823100
     33 N33          9.2530     3.5040     2.0810 nv         1 TFN      -1.074200
     34 C27          7.0130     3.1320     0.2370 ca         1 TFN      -0.080000
     35 C26          5.8670     2.7980    -0.5060 ca         1 TFN      -0.104500
     36 H7          -5.6730     0.0460    -0.9660 h1         1 TFN       0.098200
     37 H7A         -5.3150    -0.0530     0.7760 h1         1 TFN       0.098200
     38 H4          -5.9710     2.2500    -2.0770 ha         1 TFN       0.119000
     39 H3          -6.5560     4.6520    -1.8130 ha         1 TFN       0.115000
     40 H2          -6.3800     5.7450     0.4220 ha         1 TFN       0.112000
     41 H1          -5.6190     4.4250     2.3950 ha         1 TFN       0.115000
     42 H6          -5.0330     2.0220     2.1390 ha         1 TFN       0.119000
     43 HN9         -3.4690    -1.7480     0.3140 hn         1 TFN       0.510000
     44 H10         -1.9010    -1.8440    -2.1880 h1         1 TFN       0.091700
     45 H11         -3.0250    -3.9130    -1.9570 h1         1 TFN       0.036700
     46 H11A        -1.3420    -4.1630    -1.4430 h1         1 TFN       0.036700
     47 H15         -0.8870    -5.8560     0.7400 hc         1 TFN       0.043700
     48 H15A        -1.8170    -7.3490     0.5070 hc         1 TFN       0.043700
     49 H15B        -1.3910    -6.3580    -0.8910 hc         1 TFN       0.043700
     50 H16         -4.4250    -5.0350     1.9430 hc         1 TFN       0.043700
     51 H16A        -3.7310    -6.6640     2.0700 hc         1 TFN       0.043700
     52 H16B        -2.7490    -5.2470     2.4940 hc         1 TFN       0.043700
     53 H14         -3.7560    -6.0510    -1.6690 hc         1 TFN       0.043700
     54 H14A        -4.4620    -7.0130    -0.3670 hc         1 TFN       0.043700
     55 H14B        -4.9900    -5.3360    -0.6040 hc         1 TFN       0.043700
     56 HN19        -0.0150    -0.8990    -2.0560 hn         1 TFN       0.341500
     57 H20          1.3110     0.0410     0.2950 h1         1 TFN       0.070700
     58 H20A         2.0480    -1.5200    -0.1540 h1         1 TFN       0.070700
     59 HN23         3.8000     0.3400    -0.1760 hn         1 TFN       0.322500
     60 H24          4.8200     0.5650    -2.8280 h1         1 TFN       0.062700
     61 H24A         4.0840     2.1200    -2.3840 h1         1 TFN       0.062700
     62 H30          6.8250    -0.2810    -1.6290 ha         1 TFN       0.119500
     63 H29          8.8430     0.2960    -0.3320 ha         1 TFN       0.130500
     64 HN32        11.1830     2.5480     1.4000 hn         1 TFN       0.372400
     65 HN33         8.3070     3.7100     2.3820 hn         1 TFN       0.461000
     66 HN3A         9.9330     3.4300     2.8280 hn         1 TFN       0.461000
     67 H27          7.0500     4.1020     0.7270 ha         1 TFN       0.130500
     68 H26          5.0400     3.5040    -0.5600 ha         1 TFN       0.119500
@<TRIPOS>BOND
     1     1     2 1   
     2     1     3 1   
     3     1    36 1   
     4     1    37 1   
     5     2     9 2   
     6     2    10 2   
     7     2    11 1   
     8     3     4 ar  
     9     3     8 ar  
    10     4     5 ar  
    11     4    38 1   
    12     5     6 ar  
    13     5    39 1   
    14     6     7 ar  
    15     6    40 1   
    16     7     8 ar  
    17     7    41 1   
    18     8    42 1   
    19    11    12 1   
    20    11    43 1   
    21    12    13 1   
    22    12    19 1   
    23    12    44 1   
    24    13    14 1   
    25    13    45 1   
    26    13    46 1   
    27    14    15 1   
    28    15    16 1   
    29    15    17 1   
    30    15    18 1   
    31    16    47 1   
    32    16    48 1   
    33    16    49 1   
    34    17    50 1   
    35    17    51 1   
    36    17    52 1   
    37    18    53 1   
    38    18    54 1   
    39    18    55 1   
    40    19    20 2   
    41    19    21 1   
    42    21    22 1   
    43    21    56 1   
    44    22    23 1   
    45    22    57 1   
    46    22    58 1   
    47    23    24 2   
    48    23    25 1   
    49    25    26 1   
    50    25    59 1   
    51    26    27 1   
    52    26    60 1   
    53    26    61 1   
    54    27    28 ar  
    55    27    35 ar  
    56    28    29 ar  
    57    28    62 1   
    58    29    30 ar  
    59    29    63 1   
    60    30    31 1   
    61    30    34 ar  
    62    31    32 2   
    63    31    33 1   
    64    32    64 1   
    65    33    65 1   
    66    33    66 1   
    67    34    35 ar  
    68    34    67 1   
    69    35    68 1   
@<TRIPOS>SUBSTRUCTURE
     1 TFN         1 TEMP              0 ****  ****    0 ROOT
