@<TRIPOS>MOLECULE
TFN
   68    69     1     0     0
SMALL
bcc


@<TRIPOS>ATOM
      1 C7          -5.8030     0.4350    -0.4270 c3         1 TFN      -0.139300
      2 S8          -4.1640     0.5030     0.3060 s6         1 TFN       1.214900
      3 C5          -6.4990     1.7450    -0.2320 ca         1 TFN      -0.082300
      4 C4          -6.3340     2.7740    -1.1550 ca         1 TFN      -0.103000
      5 C3          -6.9630     3.9960    -0.9620 ca         1 TFN      -0.128000
      6 C2          -7.7560     4.2020     0.1590 ca         1 TFN      -0.118000
      7 C1          -7.9200     3.1810     1.0860 ca         1 TFN      -0.128000
      8 C6          -7.2900     1.9600     0.8930 ca         1 TFN      -0.103000
      9 O35         -3.3630     1.4370    -0.4750 o          1 TFN      -0.601800
     10 O34         -4.3310     0.7150     1.7360 o          1 TFN      -0.601800
     11 N9          -3.5920    -1.0260     0.0360 n7         1 TFN      -0.827100
     12 C10         -2.3930    -1.2100    -0.7560 c3         1 TFN       0.149500
     13 C11         -2.2170    -2.6980    -1.0280 c3         1 TFN       0.145400
     14 O12         -2.0200    -3.3160     0.2120 os         1 TFN      -0.424600
     15 C13         -1.6150    -4.6860     0.2230 c3         1 TFN       0.168800
     16 C15         -0.1630    -4.8150    -0.2350 c3         1 TFN      -0.107100
     17 C16         -1.7410    -5.1070     1.6820 c3         1 TFN      -0.107100
     18 C14         -2.5270    -5.5480    -0.6460 c3         1 TFN      -0.107100
     19 C17         -1.1560    -0.6430    -0.0500 c          1 TFN       0.656100
     20 O18         -1.1970    -0.2420     1.1010 o          1 TFN      -0.598100
     21 N19         -0.0450    -0.6280    -0.7930 ns         1 TFN      -0.556900
     22 C20          1.2070    -0.1400    -0.2880 c3         1 TFN       0.021000
     23 C21          2.2570    -0.1960    -1.3850 c          1 TFN       0.656100
     24 O22          2.0610    -0.7820    -2.4390 o          1 TFN      -0.614100
     25 N23          3.4010     0.4280    -1.0800 ns         1 TFN      -0.566900
     26 C24          4.5300     0.5090    -1.9850 c3         1 TFN       0.147300
     27 C25          5.8030     0.7310    -1.2160 ca         1 TFN      -0.105300
     28 C30          6.3220    -0.2710    -0.3970 ca         1 TFN      -0.122500
     29 C29          7.4870    -0.0640     0.3180 ca         1 TFN      -0.098000
     30 C28          8.1580     1.1570     0.2460 ca         1 TFN      -0.133900
     31 C31          9.4160     1.3510     1.0200 ce         1 TFN       0.655800
     32 N32         10.1280     0.3260     1.2950 n2         1 TFN      -0.823100
     33 N33          9.7200     2.6480     1.3210 nv         1 TFN      -0.963800
     34 C27          7.6400     2.1580    -0.5700 ca         1 TFN      -0.098000
     35 C26          6.4750     1.9430    -1.2940 ca         1 TFN      -0.122500
     36 H7          -5.6620     0.1860    -1.4790 h1         1 TFN       0.098200
     37 H7A         -6.3270    -0.3900     0.0580 h1         1 TFN       0.098200
     38 H4          -5.7210     2.6170    -2.0340 ha         1 TFN       0.137000
     39 H3          -6.8320     4.7890    -1.6880 ha         1 TFN       0.133000
     40 H2          -8.2480     5.1550     0.3080 ha         1 TFN       0.130000
     41 H1          -8.5380     3.3350     1.9600 ha         1 TFN       0.133000
     42 H6          -7.4230     1.1660     1.6180 ha         1 TFN       0.137000
     43 HN9         -3.6180    -1.5910     0.8780 hn         1 TFN       0.454800
     44 H10         -2.5230    -0.7160    -1.7220 h1         1 TFN       0.091700
     45 H11         -3.1130    -3.0680    -1.5410 h1         1 TFN       0.036700
     46 H11A        -1.3730    -2.8380    -1.7120 h1         1 TFN       0.036700
     47 H15          0.4940    -4.1820     0.3640 hc         1 TFN       0.043700
     48 H15A         0.1740    -5.8460    -0.1260 hc         1 TFN       0.043700
     49 H15B        -0.0320    -4.5460    -1.2840 hc         1 TFN       0.043700
     50 H16         -2.7730    -5.0210     2.0260 hc         1 TFN       0.043700
     51 H16A        -1.4310    -6.1450     1.8070 hc         1 TFN       0.043700
     52 H16B        -1.1120    -4.4900     2.3260 hc         1 TFN       0.043700
     53 H14         -2.4160    -5.3300    -1.7100 hc         1 TFN       0.043700
     54 H14A        -2.2840    -6.6020    -0.5070 hc         1 TFN       0.043700
     55 H14B        -3.5770    -5.4100    -0.3780 hc         1 TFN       0.043700
     56 HN19        -0.0560    -0.9600    -1.7460 hn         1 TFN       0.341500
     57 H20          1.1090     0.8860     0.0750 h1         1 TFN       0.070700
     58 H20A         1.5560    -0.7410     0.5590 h1         1 TFN       0.070700
     59 HN23         3.4440     0.9720    -0.2310 hn         1 TFN       0.322500
     60 H24          4.5880    -0.4210    -2.5520 h1         1 TFN       0.062700
     61 H24A         4.3880     1.3170    -2.7080 h1         1 TFN       0.062700
     62 H30          5.8110    -1.2240    -0.3220 ha         1 TFN       0.137500
     63 H29          7.8840    -0.8510     0.9460 ha         1 TFN       0.148500
     64 HN32        10.9420     0.5830     1.8470 hn         1 TFN       0.372400
     65 HN33         8.9620     3.2990     1.4450 hn         1 TFN       0.405800
     66 HN3A        10.4890     2.8050     1.9540 hn         1 TFN       0.405800
     67 H27          8.1460     3.1100    -0.6650 ha         1 TFN       0.148500
     68 H26          6.0890     2.7310    -1.9300 ha         1 TFN       0.137500
@<TRIPOS>BOND
     1     1     2 1   
     2     1     3 1   
     3     1    36 1   
     4     1    37 1   
     5     2     9 2   
     6     2    10 2   
     7     2    11 1   
     8     3     4 ar  
     9     3     8 ar  
    10     4     5 ar  
    11     4    38 1   
    12     5     6 ar  
    13     5    39 1   
    14     6     7 ar  
    15     6    40 1   
    16     7     8 ar  
    17     7    41 1   
    18     8    42 1   
    19    11    12 1   
    20    11    43 1   
    21    12    13 1   
    22    12    19 1   
    23    12    44 1   
    24    13    14 1   
    25    13    45 1   
    26    13    46 1   
    27    14    15 1   
    28    15    16 1   
    29    15    17 1   
    30    15    18 1   
    31    16    47 1   
    32    16    48 1   
    33    16    49 1   
    34    17    50 1   
    35    17    51 1   
    36    17    52 1   
    37    18    53 1   
    38    18    54 1   
    39    18    55 1   
    40    19    20 2   
    41    19    21 1   
    42    21    22 1   
    43    21    56 1   
    44    22    23 1   
    45    22    57 1   
    46    22    58 1   
    47    23    24 2   
    48    23    25 1   
    49    25    26 1   
    50    25    59 1   
    51    26    27 1   
    52    26    60 1   
    53    26    61 1   
    54    27    28 ar  
    55    27    35 ar  
    56    28    29 ar  
    57    28    62 1   
    58    29    30 ar  
    59    29    63 1   
    60    30    31 1   
    61    30    34 ar  
    62    31    32 2   
    63    31    33 1   
    64    32    64 1   
    65    33    65 1   
    66    33    66 1   
    67    34    35 ar  
    68    34    67 1   
    69    35    68 1   
@<TRIPOS>SUBSTRUCTURE
     1 TFN         1 TEMP              0 ****  ****    0 ROOT
