@<TRIPOS>MOLECULE
TFP
   52    55     1     0     0
SMALL
bcc


@<TRIPOS>ATOM
      1 C1          -2.2800    -0.4150    -2.3910 ca         1 TFP      -0.163300
      2 C2          -2.0050    -0.6820    -3.7200 ca         1 TFP      -0.105000
      3 C3          -0.7220    -0.4460    -4.1930 ca         1 TFP      -0.085000
      4 C4           0.2570     0.0640    -3.3590 ca         1 TFP       0.035900
      5 C5           0.0010     0.3060    -2.0000 ca         1 TFP       0.078700
      6 C6          -1.2880     0.0570    -1.5360 ca         1 TFP      -0.136000
      7 S            1.7950     0.5550    -4.0470 ss         1 TFP      -0.249800
      8 C7           2.8290     0.2120    -2.6650 ca         1 TFP       0.008900
      9 C8           4.1420    -0.1700    -2.8880 ca         1 TFP      -0.072000
     10 C9           5.0280    -0.2860    -1.8260 ca         1 TFP      -0.152000
     11 C10          4.5720    -0.0320    -0.5430 ca         1 TFP      -0.091000
     12 C11          3.2470     0.3100    -0.3140 ca         1 TFP      -0.176000
     13 C12          2.3440     0.4390    -1.3710 ca         1 TFP       0.079700
     14 N1           1.0050     0.7980    -1.1670 na         1 TFP      -0.164100
     15 C13          0.6420     1.4080     0.1030 c3         1 TFP       0.041300
     16 C14          0.3700     0.4640     1.2820 c3         1 TFP      -0.114400
     17 C15          0.5190     1.2310     2.5910 c3         1 TFP       0.172800
     18 N2          -0.0710     0.5560     3.7270 n3         1 TFP      -0.722600
     19 C16         -0.1010     1.4180     4.8940 c6         1 TFP       0.166300
     20 C17         -0.8090     0.7350     6.0470 c6         1 TFP       0.164300
     21 N3          -0.1580    -0.5170     6.3750 n3         1 TFP      -0.718600
     22 C18         -0.1190    -1.3800     5.2130 c6         1 TFP       0.164300
     23 C19          0.5810    -0.6980     4.0510 c6         1 TFP       0.166300
     24 C20         -0.7780    -1.1670     7.5040 c3         1 TFP       0.154100
     25 C21         -3.6400    -0.6560    -1.8160 c3         1 TFP       0.719200
     26 F1          -4.5260    -1.0460    -2.7360 f          1 TFP      -0.234633
     27 F2          -3.6160    -1.6060    -0.8690 f          1 TFP      -0.234633
     28 F3          -4.1380     0.4450    -1.2330 f          1 TFP      -0.234633
     29 H2          -2.7590    -1.0610    -4.3950 ha         1 TFP       0.154000
     30 H3          -0.4900    -0.6380    -5.2330 ha         1 TFP       0.150000
     31 H6          -1.5310     0.2390    -0.5010 ha         1 TFP       0.151000
     32 H8           4.4780    -0.3530    -3.9010 ha         1 TFP       0.144000
     33 H9           6.0580    -0.5630    -2.0050 ha         1 TFP       0.138000
     34 H10          5.2450    -0.1110     0.3010 ha         1 TFP       0.134000
     35 H11          2.9370     0.4810     0.7060 ha         1 TFP       0.137000
     36 H131        -0.2310     2.0420    -0.0660 h1         1 TFP       0.060200
     37 H132         1.4510     2.0940     0.3630 h1         1 TFP       0.060200
     38 H141         1.0420    -0.3960     1.2490 hc         1 TFP       0.059700
     39 H142        -0.6430     0.0590     1.2360 hc         1 TFP       0.059700
     40 H151         0.0130     2.1970     2.4850 h1         1 TFP       0.029700
     41 H152         1.5870     1.4630     2.7590 h1         1 TFP       0.029700
     42 H161        -0.6330     2.3380     4.6420 h1         1 TFP       0.037700
     43 H162         0.9150     1.7080     5.2140 h1         1 TFP       0.037700
     44 H171        -1.8710     0.5860     5.7820 h1         1 TFP       0.038450
     45 H172        -0.7860     1.3900     6.9210 h1         1 TFP       0.038450
     46 H181         0.4190    -2.2970     5.4660 h1         1 TFP       0.038450
     47 H182        -1.1340    -1.6790     4.8940 h1         1 TFP       0.038450
     48 H191         0.5440    -1.3680     3.1910 h1         1 TFP       0.037700
     49 H192         1.6460    -0.5500     4.3020 h1         1 TFP       0.037700
     50 H201        -0.2300    -2.0750     7.7620 h1         1 TFP       0.030700
     51 H202        -0.7590    -0.5070     8.3730 h1         1 TFP       0.030700
     52 H203        -1.8270    -1.4500     7.3220 h1         1 TFP       0.030700
@<TRIPOS>BOND
     1     1     2 ar  
     2     1     6 ar  
     3     1    25 1   
     4     2     3 ar  
     5     2    29 1   
     6     3     4 ar  
     7     3    30 1   
     8     4     5 ar  
     9     4     7 1   
    10     5     6 ar  
    11     5    14 1   
    12     6    31 1   
    13     7     8 1   
    14     8     9 ar  
    15     8    13 ar  
    16     9    10 ar  
    17     9    32 1   
    18    10    11 ar  
    19    10    33 1   
    20    11    12 ar  
    21    11    34 1   
    22    12    13 ar  
    23    12    35 1   
    24    13    14 1   
    25    14    15 1   
    26    15    16 1   
    27    15    36 1   
    28    15    37 1   
    29    16    17 1   
    30    16    38 1   
    31    16    39 1   
    32    17    18 1   
    33    17    40 1   
    34    17    41 1   
    35    18    19 1   
    36    18    23 1   
    37    19    20 1   
    38    19    42 1   
    39    19    43 1   
    40    20    21 1   
    41    20    44 1   
    42    20    45 1   
    43    21    22 1   
    44    21    24 1   
    45    22    23 1   
    46    22    46 1   
    47    22    47 1   
    48    23    48 1   
    49    23    49 1   
    50    24    50 1   
    51    24    51 1   
    52    24    52 1   
    53    25    26 1   
    54    25    27 1   
    55    25    28 1   
@<TRIPOS>SUBSTRUCTURE
     1 TFP         1 TEMP              0 ****  ****    0 ROOT
