@<TRIPOS>MOLECULE
TFP
   52    55     1     0     0
SMALL
No Charge or Current Charge


@<TRIPOS>ATOM
      1 C1          -2.2450    -0.4910    -2.6280 ca         1 TFP      -0.163300
      2 C2          -2.0500     0.0970    -3.8970 ca         1 TFP      -0.087000
      3 C3          -0.8220     0.6950    -4.2240 ca         1 TFP      -0.067000
      4 C4           0.2230     0.7240    -3.2860 ca         1 TFP      -0.109000
      5 C5           0.0380     0.1620    -2.0060 ca         1 TFP       0.028000
      6 C6          -1.1920    -0.4460    -1.6870 ca         1 TFP      -0.118000
      7 S            1.7930     1.4570    -3.7340 ss         1 TFP       0.040000
      8 C7           2.8580     0.4710    -2.6860 ca         1 TFP      -0.136000
      9 C8           4.1800     0.2120    -3.0900 ca         1 TFP      -0.054000
     10 C9           5.0160    -0.5850    -2.2900 ca         1 TFP      -0.134000
     11 C10          4.5310    -1.1260    -1.0880 ca         1 TFP      -0.073000
     12 C11          3.2110    -0.8650    -0.6820 ca         1 TFP      -0.158000
     13 C12          2.3680    -0.0600    -1.4740 ca         1 TFP       0.029000
     14 N1           1.0650     0.2310    -1.0600 na         1 TFP      -0.092000
     15 C13          0.8750     1.0840     0.1350 c3         1 TFP       0.070600
     16 C14          0.4960     0.3180     1.4220 c3         1 TFP      -0.114400
     17 C15          0.3340     1.2590     2.6340 c3         1 TFP       0.172800
     18 N2          -0.1820     0.6030     3.8590 n3         1 TFP      -0.722600
     19 C16         -0.5210     1.5940     4.9270 c6         1 TFP       0.166300
     20 C17         -1.1040     0.9200     6.2100 c6         1 TFP       0.164300
     21 N3          -0.1910    -0.1240     6.7670 n3         1 TFP      -0.718600
     22 C18          0.1490    -1.1200     5.7060 c6         1 TFP       0.164300
     23 C19          0.7290    -0.4490     4.4190 c6         1 TFP       0.166300
     24 C20         -0.7210    -0.7530     7.9950 c3         1 TFP       0.154100
     25 C21         -3.5830    -1.1450    -2.2610 c3         1 TFP       0.355300
     26 F1          -4.2610    -1.5860    -3.3460 f          1 TFP      -0.113333
     27 F2          -3.4240    -2.2140    -1.4470 f          1 TFP      -0.113333
     28 F3          -4.3940    -0.2760    -1.6170 f          1 TFP      -0.113333
     29 H2          -2.8480     0.0900    -4.6380 ha         1 TFP       0.136000
     30 H3          -0.6820     1.1330    -5.2100 ha         1 TFP       0.132000
     31 H6          -1.3310    -0.8880    -0.7050 ha         1 TFP       0.133000
     32 H8           4.5560     0.6220    -4.0250 ha         1 TFP       0.126000
     33 H9           6.0370    -0.7870    -2.6040 ha         1 TFP       0.120000
     34 H10          5.1770    -1.7480    -0.4710 ha         1 TFP       0.116000
     35 H11          2.8480    -1.2930     0.2480 ha         1 TFP       0.119000
     36 H131         0.0930     1.8210    -0.0860 h1         1 TFP       0.060200
     37 H132         1.8040     1.6420     0.3130 h1         1 TFP       0.060200
     38 H141         1.2680    -0.4270     1.6370 hc         1 TFP       0.059700
     39 H142        -0.4440    -0.2220     1.2680 hc         1 TFP       0.059700
     40 H151        -0.3590     2.0590     2.3410 h1         1 TFP       0.029700
     41 H152         1.3020     1.7360     2.8430 h1         1 TFP       0.029700
     42 H161        -1.2550     2.3210     4.5510 h1         1 TFP       0.037700
     43 H162         0.3770     2.1640     5.2110 h1         1 TFP       0.037700
     44 H171        -2.0790     0.4750     5.9580 h1         1 TFP       0.038450
     45 H172        -1.2930     1.7000     6.9620 h1         1 TFP       0.038450
     46 H181         0.8850    -1.8440     6.0860 h1         1 TFP       0.038450
     47 H182        -0.7480    -1.6930     5.4250 h1         1 TFP       0.038450
     48 H191         0.9100    -1.2420     3.6800 h1         1 TFP       0.037700
     49 H192         1.7070    -0.0090     4.6650 h1         1 TFP       0.037700
     50 H201        -0.0020    -1.4770     8.4010 h1         1 TFP       0.030700
     51 H202        -0.9120     0.0050     8.7670 h1         1 TFP       0.030700
     52 H203        -1.6630    -1.2810     7.7910 h1         1 TFP       0.030700
@<TRIPOS>BOND
     1     1     2 ar  
     2     1     6 ar  
     3     1    25 1   
     4     2     3 ar  
     5     2    29 1   
     6     3     4 ar  
     7     3    30 1   
     8     4     5 ar  
     9     4     7 1   
    10     5     6 ar  
    11     5    14 1   
    12     6    31 1   
    13     7     8 1   
    14     8     9 ar  
    15     8    13 ar  
    16     9    10 ar  
    17     9    32 1   
    18    10    11 ar  
    19    10    33 1   
    20    11    12 ar  
    21    11    34 1   
    22    12    13 ar  
    23    12    35 1   
    24    13    14 1   
    25    14    15 1   
    26    15    16 1   
    27    15    36 1   
    28    15    37 1   
    29    16    17 1   
    30    16    38 1   
    31    16    39 1   
    32    17    18 1   
    33    17    40 1   
    34    17    41 1   
    35    18    19 1   
    36    18    23 1   
    37    19    20 1   
    38    19    42 1   
    39    19    43 1   
    40    20    21 1   
    41    20    44 1   
    42    20    45 1   
    43    21    22 1   
    44    21    24 1   
    45    22    23 1   
    46    22    46 1   
    47    22    47 1   
    48    23    48 1   
    49    23    49 1   
    50    24    50 1   
    51    24    51 1   
    52    24    52 1   
    53    25    26 1   
    54    25    27 1   
    55    25    28 1   
@<TRIPOS>SUBSTRUCTURE
     1 TFP         1 TEMP              0 ****  ****    0 ROOT
