@<TRIPOS>MOLECULE
TFQ
   28    28     1     0     0
SMALL
bcc


@<TRIPOS>ATOM
      1 F16          3.4260    -1.5070     0.2960 f          1 TFQ      -0.242300
      2 C14          3.8270    -0.2300     0.3780 c3         1 TFQ       0.658900
      3 F17          3.4400     0.2140     1.5830 f          1 TFQ      -0.242300
      4 F15          5.1690    -0.2460     0.3850 f          1 TFQ      -0.242300
      5 C13          3.2830     0.6150    -0.7450 c3         1 TFQ      -0.085100
      6 C1           1.7790     0.6110    -0.7760 ca         1 TFQ      -0.135300
      7 C6           1.0850    -0.3370    -1.5200 ca         1 TFQ      -0.108000
      8 C5          -0.3030    -0.3460    -1.5390 ca         1 TFQ      -0.138500
      9 C2           1.0500     1.5510    -0.0530 ca         1 TFQ      -0.108000
     10 C3          -0.3370     1.5360    -0.0710 ca         1 TFQ      -0.138500
     11 C4          -1.0400     0.5880    -0.8130 ca         1 TFQ      -0.029300
     12 C7          -2.5380     0.5500    -0.7780 c3         1 TFQ      -0.076100
     13 C8          -3.0810    -0.2700     0.4180 c3         1 TFQ       0.028500
     14 N9          -2.6500    -1.6530     0.4500 n8         1 TFQ      -0.877800
     15 C10         -4.6230    -0.1770     0.3830 c          1 TFQ       0.934600
     16 O12         -5.2350    -1.1330    -0.1320 o          1 TFQ      -0.833300
     17 O11         -5.1220     0.8750     0.8290 o          1 TFQ      -0.833300
     18 H131         3.6660     1.6300    -0.6180 hc         1 TFQ       0.071700
     19 H132         3.6920     0.2330    -1.6820 hc         1 TFQ       0.071700
     20 H6           1.6300    -1.0730    -2.0990 ha         1 TFQ       0.119500
     21 H5          -0.8200    -1.0880    -2.1370 ha         1 TFQ       0.137000
     22 H2           1.5660     2.3120     0.5190 ha         1 TFQ       0.119500
     23 H3          -0.8830     2.2830     0.4940 ha         1 TFQ       0.137000
     24 H71         -2.9290     1.5680    -0.7110 hc         1 TFQ       0.057200
     25 H72         -2.9240     0.1150    -1.7050 hc         1 TFQ       0.057200
     26 H8          -2.7290     0.2210     1.3330 h1         1 TFQ       0.047700
     27 HN91        -3.1180    -2.1550    -0.2940 hn         1 TFQ       0.324800
     28 HN92        -1.6550    -1.7220     0.2710 hn         1 TFQ       0.324800
@<TRIPOS>BOND
     1     1     2 1   
     2     2     3 1   
     3     2     4 1   
     4     2     5 1   
     5     5     6 1   
     6     5    18 1   
     7     5    19 1   
     8     6     7 ar  
     9     6     9 ar  
    10     7     8 ar  
    11     7    20 1   
    12     8    11 ar  
    13     8    21 1   
    14     9    10 ar  
    15     9    22 1   
    16    10    11 ar  
    17    10    23 1   
    18    11    12 1   
    19    12    13 1   
    20    12    24 1   
    21    12    25 1   
    22    13    14 1   
    23    13    15 1   
    24    13    26 1   
    25    14    27 1   
    26    14    28 1   
    27    15    16 1   
    28    15    17 1   
@<TRIPOS>SUBSTRUCTURE
     1 TFQ         1 TEMP              0 ****  ****    0 ROOT
