@<TRIPOS>MOLECULE
TFQ
   28    28     1     0     0
SMALL
No Charge or Current Charge


@<TRIPOS>ATOM
      1 F16          3.6380    -1.5600     0.0950 f          1 TFQ      -0.121000
      2 C14          3.9500    -0.2650     0.3340 c3         1 TFQ       0.295000
      3 F17          3.5240     0.0460     1.5800 f          1 TFQ      -0.121000
      4 F15          5.2980    -0.1550     0.3180 f          1 TFQ      -0.121000
      5 C13          3.3160     0.6670    -0.7220 c3         1 TFQ      -0.085100
      6 C1           1.7900     0.5990    -0.7650 ca         1 TFQ      -0.135300
      7 C6           1.1430    -0.3230    -1.6090 ca         1 TFQ      -0.090000
      8 C5          -0.2600    -0.3860    -1.6480 ca         1 TFQ      -0.120500
      9 C2           1.0170     1.4580     0.0380 ca         1 TFQ      -0.090000
     10 C3          -0.3860     1.3940    -0.0010 ca         1 TFQ      -0.120500
     11 C4          -1.0350     0.4700    -0.8420 ca         1 TFQ      -0.029300
     12 C7          -2.5600     0.4080    -0.8850 c3         1 TFQ      -0.076100
     13 C8          -3.2000    -0.1500     0.4140 c3         1 TFQ       0.028500
     14 N9          -2.6390    -1.5170     0.7190 n8         1 TFQ      -0.988200
     15 C10         -4.7810    -0.0250     0.3610 c          1 TFQ       0.724000
     16 O12         -5.4000    -0.7330    -0.4250 o          1 TFQ      -0.728000
     17 O11         -5.3310     0.7290     1.1550 o          1 TFQ      -0.728000
     18 H131         3.6400     1.6950    -0.5190 hc         1 TFQ       0.071700
     19 H132         3.7300     0.4130    -1.7060 hc         1 TFQ       0.071700
     20 H6           1.7270    -0.9930    -2.2360 ha         1 TFQ       0.101500
     21 H5          -0.7450    -1.1040    -2.3060 ha         1 TFQ       0.119000
     22 H2           1.5030     2.1760     0.6950 ha         1 TFQ       0.101500
     23 H3          -0.9710     2.0660     0.6240 ha         1 TFQ       0.119000
     24 H71         -2.9550     1.4170    -1.0600 hc         1 TFQ       0.057200
     25 H72         -2.8960    -0.1930    -1.7390 hc         1 TFQ       0.057200
     26 H8          -2.8750     0.5060     1.2330 h1         1 TFQ       0.047700
     27 HN91        -2.9910    -2.1790     0.0170 hn         1 TFQ       0.380000
     28 HN92        -1.6270    -1.4970     0.5510 hn         1 TFQ       0.380000
@<TRIPOS>BOND
     1     1     2 1   
     2     2     3 1   
     3     2     4 1   
     4     2     5 1   
     5     5     6 1   
     6     5    18 1   
     7     5    19 1   
     8     6     7 ar  
     9     6     9 ar  
    10     7     8 ar  
    11     7    20 1   
    12     8    11 ar  
    13     8    21 1   
    14     9    10 ar  
    15     9    22 1   
    16    10    11 ar  
    17    10    23 1   
    18    11    12 1   
    19    12    13 1   
    20    12    24 1   
    21    12    25 1   
    22    13    14 1   
    23    13    15 1   
    24    13    26 1   
    25    14    27 1   
    26    14    28 1   
    27    15    16 1   
    28    15    17 1   
@<TRIPOS>SUBSTRUCTURE
     1 TFQ         1 TEMP              0 ****  ****    0 ROOT
