@<TRIPOS>MOLECULE
TFR
   38    37     1     0     0
SMALL
bcc


@<TRIPOS>ATOM
      1 N           -1.8910     0.6710     0.2800 ns         1 TFR      -0.594900
      2 O            7.2050     0.2480    -0.5640 o          1 TFR      -0.840300
      3 C1          -1.1190    -0.2490    -0.3410 c          1 TFR       0.671100
      4 O1          -1.3760    -0.6900    -1.4500 o          1 TFR      -0.593100
      5 CA          -3.0350     1.3170    -0.3290 c3         1 TFR       0.080700
      6 CB          -2.9450     2.8250    -0.1310 c3         1 TFR      -0.106100
      7 CC          -4.3620     0.7860     0.2410 c3         1 TFR       0.075100
      8 CD          -4.6960    -0.6400    -0.1840 c3         1 TFR       0.630900
      9 FE          -5.9220    -0.9880     0.2340 f          1 TFR      -0.233633
     10 FF          -4.6840    -0.7770    -1.5150 f          1 TFR      -0.233633
     11 FG          -3.8520    -1.5500     0.3200 f          1 TFR      -0.233633
     12 CA1          0.1180    -0.6650     0.4190 c3         1 TFR      -0.158400
     13 CB1          1.3680     0.0070    -0.1540 c3         1 TFR      -0.071400
     14 OB1         -4.4370     0.8920     1.6330 oh         1 TFR      -0.574800
     15 CD1          3.8840     0.2460     0.0130 c3         1 TFR      -0.050400
     16 CE1          5.1910    -0.2400     0.6440 c3         1 TFR       0.014500
     17 CG1          2.6430    -0.4700     0.5290 c3         1 TFR      -0.074400
     18 CZ1          6.3460     0.7010     0.2180 c          1 TFR       0.902600
     19 NZ1          5.3930    -1.6500     0.3450 n8         1 TFR      -0.891800
     20 HN          -1.5500     1.0570     1.1470 hn         1 TFR       0.313500
     21 HA          -3.0060     1.1100    -1.3990 h1         1 TFR       0.099700
     22 HB          -2.9500     3.0960     0.9250 hc         1 TFR       0.048033
     23 HBA         -2.0260     3.2060    -0.5750 hc         1 TFR       0.048033
     24 HBB         -3.7840     3.3280    -0.6100 hc         1 TFR       0.048033
     25 HC          -5.1630     1.4110    -0.1670 h1         1 TFR       0.097700
     26 HA1          0.0310    -0.4320     1.4820 hc         1 TFR       0.059700
     27 HA1A         0.2160    -1.7500     0.3340 hc         1 TFR       0.059700
     28 HB1          1.4320    -0.1930    -1.2270 hc         1 TFR       0.043200
     29 HB1A         1.2770     1.0930    -0.0460 hc         1 TFR       0.043200
     30 HOB1        -3.6810     0.4430     2.0300 ho         1 TFR       0.420000
     31 HD1          3.7850     1.3180     0.1970 hc         1 TFR       0.038700
     32 HD1A         3.9470     0.1280    -1.0770 hc         1 TFR       0.038700
     33 HE1          5.0810    -0.1480     1.7310 h1         1 TFR       0.035700
     34 HG1          2.5600    -0.3120     1.6100 hc         1 TFR       0.037700
     35 HG1A         2.7530    -1.5480     0.3850 hc         1 TFR       0.037700
     36 HNZ1         5.6600    -1.7250    -0.6300 hn         1 TFR       0.326300
     37 HNZA         6.2080    -1.9760     0.8510 hn         1 TFR       0.326300
     38 OH1          6.3060     1.8600     0.6840 o          1 TFR      -0.840300
@<TRIPOS>BOND
     1     1     3 1   
     2     1     5 1   
     3     1    20 1   
     4     2    18 1   
     5     3     4 2   
     6     3    12 1   
     7     5     6 1   
     8     5     7 1   
     9     5    21 1   
    10     6    22 1   
    11     6    23 1   
    12     6    24 1   
    13     7     8 1   
    14     7    14 1   
    15     7    25 1   
    16     8     9 1   
    17     8    10 1   
    18     8    11 1   
    19    12    13 1   
    20    12    26 1   
    21    12    27 1   
    22    13    17 1   
    23    13    28 1   
    24    13    29 1   
    25    14    30 1   
    26    15    16 1   
    27    15    17 1   
    28    15    31 1   
    29    15    32 1   
    30    16    18 1   
    31    16    19 1   
    32    16    33 1   
    33    17    34 1   
    34    17    35 1   
    35    18    38 1   
    36    19    36 1   
    37    19    37 1   
@<TRIPOS>SUBSTRUCTURE
     1 TFR         1 TEMP              0 ****  ****    0 ROOT
