@<TRIPOS>MOLECULE
TFR
   38    37     1     0     0
SMALL
No Charge or Current Charge


@<TRIPOS>ATOM
      1 N           -1.9240     0.7480     0.2040 ns         1 TFR      -0.527900
      2 O            7.0100     0.5580    -0.7810 o          1 TFR      -0.735000
      3 C1          -1.1340    -0.1460    -0.4860 c          1 TFR       0.604100
      4 O1          -1.4120    -0.5390    -1.6100 o          1 TFR      -0.593100
      5 CA          -3.1530     1.3700    -0.3170 c3         1 TFR       0.080700
      6 CB          -3.0550     2.9000    -0.1440 c3         1 TFR      -0.106100
      7 CC          -4.4530     0.7790     0.3220 c3         1 TFR       0.098300
      8 CD          -4.7680    -0.6950    -0.0990 c3         1 TFR       0.267000
      9 FE          -5.9840    -1.0730     0.3580 f          1 TFR      -0.112333
     10 FF          -4.7830    -0.8270    -1.4460 f          1 TFR      -0.112333
     11 FG          -3.8580    -1.5680     0.3950 f          1 TFR      -0.112333
     12 CA1          0.1010    -0.6380     0.2760 c3         1 TFR      -0.158400
     13 CB1          1.4000    -0.0030    -0.2750 c3         1 TFR      -0.071400
     14 OB1         -4.3950     0.9000     1.7640 oh         1 TFR      -0.637000
     15 CD1          3.9660     0.1660    -0.0760 c3         1 TFR      -0.050400
     16 CE1          5.2570    -0.2330     0.6910 c3         1 TFR       0.014500
     17 CG1          2.6670    -0.4720     0.4740 c3         1 TFR      -0.074400
     18 CZ1          6.4500     0.7340     0.2940 c          1 TFR       0.692000
     19 NZ1          5.5320    -1.7120     0.5560 n8         1 TFR      -1.002200
     20 HN          -1.5900     1.0340     1.1160 hn         1 TFR       0.313500
     21 HA          -3.2060     1.1860    -1.4000 h1         1 TFR       0.099700
     22 HB          -2.9830     3.1760     0.9150 hc         1 TFR       0.048033
     23 HBA         -2.1680     3.2890    -0.6600 hc         1 TFR       0.048033
     24 HBB         -3.9360     3.3950    -0.5690 hc         1 TFR       0.048033
     25 HC          -5.2910     1.3820    -0.0550 h1         1 TFR       0.097700
     26 HA1          0.0120    -0.3790     1.3380 hc         1 TFR       0.059700
     27 HA1A         0.1700    -1.7260     0.1630 hc         1 TFR       0.059700
     28 HB1          1.4990    -0.2500    -1.3400 hc         1 TFR       0.043200
     29 HB1A         1.3220     1.0900    -0.2070 hc         1 TFR       0.043200
     30 HOB1        -3.7180     0.2620     2.0810 ho         1 TFR       0.459000
     31 HD1          3.8600     1.2570    -0.0270 hc         1 TFR       0.038700
     32 HD1A         4.0790    -0.0870    -1.1380 hc         1 TFR       0.038700
     33 HE1          5.0640    -0.0500     1.7570 h1         1 TFR       0.035700
     34 HG1          2.5680    -0.2230     1.5380 hc         1 TFR       0.037700
     35 HG1A         2.7360    -1.5640     0.4050 hc         1 TFR       0.037700
     36 HNZ1         5.8450    -1.8930    -0.4050 hn         1 TFR       0.381500
     37 HNZA         6.3590    -1.9500     1.1170 hn         1 TFR       0.381500
     38 OH1          6.8400     1.5430     1.1240 o          1 TFR      -0.735000
@<TRIPOS>BOND
     1     1     3 1   
     2     1     5 1   
     3     1    20 1   
     4     2    18 1   
     5     3     4 2   
     6     3    12 1   
     7     5     6 1   
     8     5     7 1   
     9     5    21 1   
    10     6    22 1   
    11     6    23 1   
    12     6    24 1   
    13     7     8 1   
    14     7    14 1   
    15     7    25 1   
    16     8     9 1   
    17     8    10 1   
    18     8    11 1   
    19    12    13 1   
    20    12    26 1   
    21    12    27 1   
    22    13    17 1   
    23    13    28 1   
    24    13    29 1   
    25    14    30 1   
    26    15    16 1   
    27    15    17 1   
    28    15    31 1   
    29    15    32 1   
    30    16    18 1   
    31    16    19 1   
    32    16    33 1   
    33    17    34 1   
    34    17    35 1   
    35    18    38 1   
    36    19    36 1   
    37    19    37 1   
@<TRIPOS>SUBSTRUCTURE
     1 TFR         1 TEMP              0 ****  ****    0 ROOT
