@<TRIPOS>MOLECULE
TFS
    8     7     1     0     0
SMALL
abcg2


@<TRIPOS>ATOM
      1 FAC         -1.3690    -1.0720    -0.6460 f          1 TFS      -0.136333
      2 CAD         -0.9260     0.0190    -0.0220 c3         1 TFS       0.058000
      3 FAG         -1.3990     1.0840    -0.6710 f          1 TFS      -0.136333
      4 FAA         -1.4390     0.0260     1.2080 f          1 TFS      -0.136333
      5 SAE          0.9130     0.0440     0.0410 s6         1 TFS       1.311600
      6 OAH          1.2990     0.0360    -1.3710 o          1 TFS      -0.654200
      7 OAF          1.1990     1.2890     0.7550 o          1 TFS      -0.654200
      8 OAB          1.2300    -1.1800     0.7780 o          1 TFS      -0.654200
@<TRIPOS>BOND
     1     1     2 1   
     2     2     3 1   
     3     2     4 1   
     4     2     5 1   
     5     5     6 1   
     6     5     7 1   
     7     5     8 1   
@<TRIPOS>SUBSTRUCTURE
     1 TFS         1 TEMP              0 ****  ****    0 ROOT
