@<TRIPOS>MOLECULE
TFS
    8     7     1     0     0
SMALL
No Charge or Current Charge


@<TRIPOS>ATOM
      1 FAC         -1.4130    -1.0860    -0.6580 f          1 TFS      -0.136333
      2 CAD         -0.9450     0.0190    -0.0210 c3         1 TFS       0.058000
      3 FAG         -1.4410     1.0980    -0.6800 f          1 TFS      -0.136333
      4 FAA         -1.4920     0.0240     1.2210 f          1 TFS      -0.136333
      5 SAE          0.9210     0.0440     0.0430 s6         1 TFS       1.311600
      6 OAH          1.3420     0.0350    -1.3700 o          1 TFS      -0.654200
      7 OAF          1.2520     1.2910     0.7560 o          1 TFS      -0.654200
      8 OAB          1.2840    -1.1790     0.7810 o          1 TFS      -0.654200
@<TRIPOS>BOND
     1     1     2 1   
     2     2     3 1   
     3     2     4 1   
     4     2     5 1   
     5     5     6 1   
     6     5     7 1   
     7     5     8 1   
@<TRIPOS>SUBSTRUCTURE
     1 TFS         1 TEMP              0 ****  ****    0 ROOT
