@<TRIPOS>MOLECULE
TFU
   26    26     1     0     0
SMALL
No Charge or Current Charge


@<TRIPOS>ATOM
      1 C1          -0.3530     0.0250     0.4600 c6         1 TFU       0.341300
      2 C2           0.5600     1.2120     0.0020 c6         1 TFU       0.112300
      3 O2           0.0560     2.4980     0.4500 oh         1 TFU      -0.729000
      4 C3           2.0030     0.9730     0.5400 c6         1 TFU       0.185300
      5 O3           2.8590     2.0630     0.1540 oh         1 TFU      -0.639000
      6 C4           2.5400    -0.4180     0.0590 c6         1 TFU       0.149300
      7 O4           2.6950    -0.4460    -1.3830 oh         1 TFU      -0.690000
      8 C5           1.5180    -1.5020     0.5490 c6         1 TFU       0.128300
      9 C6           1.8900    -2.9480     0.1310 c3         1 TFU      -0.090100
     10 O5           0.2010    -1.2310     0.0180 os         1 TFU      -0.430000
     11 SE1         -2.0730     0.1610    -0.2100 ss         1 TFU      -0.527000
     12 C7          -2.8340    -1.3430     0.5640 c3         1 TFU       0.118900
     13 H1          -0.4350     0.0250     1.5570 h2         1 TFU       0.054700
     14 H2           0.5950     1.1880    -1.0980 h1         1 TFU       0.085700
     15 HO2         -0.8970     2.5310     0.1900 ho         1 TFU       0.524000
     16 H3           1.9460     0.9430     1.6390 h1         1 TFU       0.035700
     17 HO3          2.2680     2.8500     0.1730 ho         1 TFU       0.458000
     18 H4           3.5080    -0.6040     0.5470 h1         1 TFU       0.047700
     19 HO4          3.1470    -1.2900    -1.6080 ho         1 TFU       0.504000
     20 H5           1.4660    -1.4750     1.6480 h1         1 TFU       0.036700
     21 H63          1.8640    -3.0770    -0.9570 hc         1 TFU       0.048367
     22 H62          2.8950    -3.2130     0.4810 hc         1 TFU       0.048367
     23 H61          1.1890    -3.6700     0.5660 hc         1 TFU       0.048367
     24 H72         -2.3200    -2.2470     0.2120 h1         1 TFU       0.059367
     25 H7          -2.7500    -1.2850     1.6570 h1         1 TFU       0.059367
     26 H71         -3.8940    -1.4060     0.2900 h1         1 TFU       0.059367
@<TRIPOS>BOND
     1     1     2 1   
     2     1    10 1   
     3     1    11 1   
     4     1    13 1   
     5     2     3 1   
     6     2     4 1   
     7     2    14 1   
     8     3    15 1   
     9     4     5 1   
    10     4     6 1   
    11     4    16 1   
    12     5    17 1   
    13     6     7 1   
    14     6     8 1   
    15     6    18 1   
    16     7    19 1   
    17     8     9 1   
    18     8    10 1   
    19     8    20 1   
    20     9    21 1   
    21     9    22 1   
    22     9    23 1   
    23    11    12 1   
    24    12    24 1   
    25    12    25 1   
    26    12    26 1   
@<TRIPOS>SUBSTRUCTURE
     1 TFU         1 TEMP              0 ****  ****    0 ROOT
