@<TRIPOS>MOLECULE
TFU
   26    26     1     0     0
SMALL
abcg2


@<TRIPOS>ATOM
      1 C1          -0.3310    -0.0790     0.3610 c6         1 TFU       0.341300
      2 C2           0.5190     1.1340    -0.0400 c6         1 TFU       0.112300
      3 O2           0.0280     2.3200     0.5350 oh         1 TFU      -0.729000
      4 C3           1.9360     0.9330     0.5010 c6         1 TFU       0.185300
      5 O3           2.8040     1.9530     0.0880 oh         1 TFU      -0.639000
      6 C4           2.5000    -0.4120     0.0690 c6         1 TFU       0.149300
      7 O4           2.6960    -0.3900    -1.3230 oh         1 TFU      -0.690000
      8 C5           1.5250    -1.5090     0.5020 c6         1 TFU       0.128300
      9 C6           1.9690    -2.8980     0.0980 c3         1 TFU      -0.090100
     10 O5           0.2460    -1.2760    -0.0720 os         1 TFU      -0.430000
     11 SE1         -2.1170     0.0490    -0.4180 ss         1 TFU      -0.527000
     12 C7          -2.9470    -1.3270     0.6900 c3         1 TFU       0.118900
     13 H1          -0.4510    -0.0770     1.4570 h2         1 TFU       0.054700
     14 H2           0.5650     1.2070    -1.1360 h1         1 TFU       0.085700
     15 HO2         -0.6780     2.6760    -0.0120 ho         1 TFU       0.524000
     16 H3           1.8630     0.9010     1.6000 h1         1 TFU       0.035700
     17 HO3          2.4540     2.7890     0.4110 ho         1 TFU       0.458000
     18 H4           3.4490    -0.5750     0.6020 h1         1 TFU       0.047700
     19 HO4          3.2650    -1.1250    -1.5660 ho         1 TFU       0.504000
     20 H5           1.4480    -1.4660     1.6000 h1         1 TFU       0.036700
     21 H63          2.0280    -3.0050    -0.9860 hc         1 TFU       0.048367
     22 H62          2.9510    -3.1140     0.5180 hc         1 TFU       0.048367
     23 H61          1.2750    -3.6500     0.4720 hc         1 TFU       0.048367
     24 H72         -2.5310    -2.3060     0.4640 h1         1 TFU       0.059367
     25 H7          -2.8070    -1.1020     1.7460 h1         1 TFU       0.059367
     26 H71         -4.0140    -1.3360     0.4710 h1         1 TFU       0.059367
@<TRIPOS>BOND
     1     1     2 1   
     2     1    10 1   
     3     1    11 1   
     4     1    13 1   
     5     2     3 1   
     6     2     4 1   
     7     2    14 1   
     8     3    15 1   
     9     4     5 1   
    10     4     6 1   
    11     4    16 1   
    12     5    17 1   
    13     6     7 1   
    14     6     8 1   
    15     6    18 1   
    16     7    19 1   
    17     8     9 1   
    18     8    10 1   
    19     8    20 1   
    20     9    21 1   
    21     9    22 1   
    22     9    23 1   
    23    11    12 1   
    24    12    24 1   
    25    12    25 1   
    26    12    26 1   
@<TRIPOS>SUBSTRUCTURE
     1 TFU         1 TEMP              0 ****  ****    0 ROOT
