@<TRIPOS>MOLECULE
TFV
   44    46     1     0     0
SMALL
bcc


@<TRIPOS>ATOM
      1 F3           6.9170     2.3330    -0.8420 f          1 TFV      -0.239300
      2 C18          6.2760     1.2950    -1.3910 c3         1 TFV       0.737200
      3 F1           6.0880     1.5920    -2.6880 f          1 TFV      -0.239300
      4 F2           7.1320     0.2580    -1.3740 f          1 TFV      -0.239300
      5 C15          5.0000     0.9820    -0.7010 ca         1 TFV      -0.400600
      6 C14          4.6200     1.5970     0.4810 ca         1 TFV       0.517200
      7 N6           3.4990     1.3240     1.1250 nb         1 TFV      -0.764000
      8 C16          4.1290     0.0260    -1.2340 ca         1 TFV       0.001000
      9 C17          2.9580    -0.2700    -0.5840 ca         1 TFV      -0.330300
     10 C13          2.6710     0.4020     0.6240 ca         1 TFV       0.717200
     11 N5           1.5580     0.1480     1.3390 nu         1 TFV      -0.871900
     12 C11          0.5010    -0.7390     0.9220 c3         1 TFV       0.202800
     13 C10         -0.4590    -0.9780     2.0840 c3         1 TFV       0.217800
     14 N4          -1.5010    -1.9110     1.7380 nu         1 TFV      -0.867900
     15 C7          -2.5910    -1.5770     1.0330 ca         1 TFV       0.726200
     16 N3          -2.7700    -0.2990     0.7080 nb         1 TFV      -0.751000
     17 C8          -3.5540    -2.5320     0.6430 ca         1 TFV      -0.303200
     18 CL          -3.3430    -4.1950     1.0580 cl         1 TFV      -0.095400
     19 C9          -4.6540    -2.1090    -0.0720 ca         1 TFV       0.508600
     20 C12         -5.7160    -3.0550    -0.5280 c3         1 TFV      -0.152400
     21 N2          -4.7980    -0.8160    -0.3790 nb         1 TFV      -0.752000
     22 C6          -3.8560     0.0200     0.0280 cp         1 TFV       0.664000
     23 C5          -4.0450     1.4540    -0.3270 cp         1 TFV       0.350300
     24 N1          -3.1240     2.3120     0.1010 nb         1 TFV      -0.633000
     25 C4          -5.1480     1.8550    -1.0760 ca         1 TFV      -0.196300
     26 C3          -5.2880     3.1980    -1.3880 ca         1 TFV      -0.106000
     27 C2          -4.3280     4.0920    -0.9430 ca         1 TFV      -0.231300
     28 C1          -3.2660     3.5930    -0.2010 ca         1 TFV       0.393200
     29 H1           5.2470     2.3530     0.9410 h4         1 TFV       0.031100
     30 H2           4.3590    -0.4820    -2.1620 ha         1 TFV       0.145000
     31 H3           2.2770    -0.9960    -1.0030 ha         1 TFV       0.146000
     32 H4           1.3820     0.7770     2.1080 hn         1 TFV       0.451800
     33 H5          -0.0510    -0.3350     0.0670 h1         1 TFV       0.054700
     34 H6           0.9230    -1.7000     0.6170 h1         1 TFV       0.054700
     35 H7           0.0860    -1.3910     2.9320 h1         1 TFV       0.070700
     36 H8          -0.9040    -0.0340     2.4020 h1         1 TFV       0.070700
     37 H9          -1.3240    -2.8860     1.9140 hn         1 TFV       0.452800
     38 H10         -6.1890    -3.5530     0.3200 hc         1 TFV       0.062033
     39 H11         -6.4780    -2.5170    -1.0850 hc         1 TFV       0.062033
     40 H12         -5.3010    -3.8360    -1.1660 hc         1 TFV       0.062033
     41 H13         -5.8770     1.1290    -1.4040 ha         1 TFV       0.165000
     42 H14         -6.1360     3.5380    -1.9680 ha         1 TFV       0.140000
     43 H15         -4.3940     5.1490    -1.1620 ha         1 TFV       0.143000
     44 H16         -2.4970     4.2630     0.1660 h4         1 TFV       0.022100
@<TRIPOS>BOND
     1     1     2 1   
     2     2     3 1   
     3     2     4 1   
     4     2     5 1   
     5     5     6 ar  
     6     5     8 ar  
     7     6     7 ar  
     8     6    29 1   
     9     7    10 ar  
    10     8     9 ar  
    11     8    30 1   
    12     9    10 ar  
    13     9    31 1   
    14    10    11 1   
    15    11    12 1   
    16    11    32 1   
    17    12    13 1   
    18    12    33 1   
    19    12    34 1   
    20    13    14 1   
    21    13    35 1   
    22    13    36 1   
    23    14    15 1   
    24    14    37 1   
    25    15    16 ar  
    26    15    17 ar  
    27    16    22 ar  
    28    17    18 1   
    29    17    19 ar  
    30    19    20 1   
    31    19    21 ar  
    32    20    38 1   
    33    20    39 1   
    34    20    40 1   
    35    21    22 ar  
    36    22    23 1   
    37    23    24 ar  
    38    23    25 ar  
    39    24    28 ar  
    40    25    26 ar  
    41    25    41 1   
    42    26    27 ar  
    43    26    42 1   
    44    27    28 ar  
    45    27    43 1   
    46    28    44 1   
@<TRIPOS>SUBSTRUCTURE
     1 TFV         1 TEMP              0 ****  ****    0 ROOT
