@<TRIPOS>MOLECULE
TFV
   44    46     1     0     0
SMALL
No Charge or Current Charge


@<TRIPOS>ATOM
      1 F3           6.0340     3.1270    -1.3850 f          1 TFV      -0.118000
      2 C18          5.9930     1.7840    -1.5330 c3         1 TFV       0.373300
      3 F1           5.9810     1.5390    -2.8630 f          1 TFV      -0.118000
      4 F2           7.1580     1.2960    -1.0530 f          1 TFV      -0.118000
      5 C15          4.8000     1.1740    -0.8100 ca         1 TFV      -0.335300
      6 C14          4.5250     1.5710     0.5100 ca         1 TFV       0.451900
      7 N6           3.4930     1.0800     1.2310 nb         1 TFV      -0.764000
      8 C16          3.9700     0.2100    -1.4150 ca         1 TFV       0.019000
      9 C17          2.9020    -0.2950    -0.6630 ca         1 TFV      -0.247000
     10 C13          2.7190     0.1800     0.6380 ca         1 TFV       0.651900
     11 N5           1.7260    -0.2340     1.4730 nu         1 TFV      -0.927100
     12 C11          0.5070    -0.9860     1.1040 c3         1 TFV       0.202800
     13 C10         -0.4260    -1.2560     2.3220 c3         1 TFV       0.217800
     14 N4          -1.6200    -2.0620     1.9620 nu         1 TFV      -0.923100
     15 C7          -2.7040    -1.6760     1.1680 ca         1 TFV       0.397900
     16 N3          -2.7730    -0.3840     0.7990 nb         1 TFV      -0.225000
     17 C8          -3.6840    -2.6050     0.7720 ca         1 TFV      -0.081000
     18 Cl          -3.5950    -4.3080     1.2560 cl         1 TFV      -0.187000
     19 C9          -4.7390    -2.1220    -0.0280 ca         1 TFV       0.180300
     20 C12         -5.8610    -3.0210    -0.5240 c3         1 TFV      -0.152400
     21 N2          -4.7960    -0.8250    -0.3940 nb         1 TFV      -0.226000
     22 C6          -3.8150     0.0070     0.0280 cp         1 TFV       0.138000
     23 C5          -3.8860     1.4610    -0.4030 cp         1 TFV       0.285000
     24 N1          -2.8910     2.2940     0.0070 nb         1 TFV      -0.633000
     25 C4          -4.9490     1.9550    -1.2110 ca         1 TFV      -0.113000
     26 C3          -4.9790     3.3070    -1.5920 ca         1 TFV      -0.088000
     27 C2          -3.9390     4.1410    -1.1540 ca         1 TFV      -0.148000
     28 C1          -2.9180     3.5960    -0.3600 ca         1 TFV       0.327900
     29 H1           5.1520     2.3070     1.0140 h4         1 TFV       0.031100
     30 H2           4.1410    -0.1420    -2.4310 ha         1 TFV       0.127000
     31 H3           2.2360    -1.0400    -1.0840 ha         1 TFV       0.128000
     32 H4           1.7350     0.2880     2.3450 hn         1 TFV       0.507000
     33 H5          -0.0540    -0.4250     0.3440 h1         1 TFV       0.054700
     34 H6           0.7880    -1.9510     0.6620 h1         1 TFV       0.054700
     35 H7           0.1570    -1.7880     3.0860 h1         1 TFV       0.070700
     36 H8          -0.7360    -0.2960     2.7590 h1         1 TFV       0.070700
     37 H9          -1.6190    -3.0500     2.2280 hn         1 TFV       0.508000
     38 H10         -6.4030    -3.4680     0.3170 hc         1 TFV       0.062033
     39 H11         -6.5900    -2.4690    -1.1310 hc         1 TFV       0.062033
     40 H12         -5.4650    -3.8340    -1.1430 hc         1 TFV       0.062033
     41 H13         -5.7450     1.2940    -1.5410 ha         1 TFV       0.147000
     42 H14         -5.7860     3.6960    -2.2090 ha         1 TFV       0.122000
     43 H15         -3.9180     5.1930    -1.4220 ha         1 TFV       0.125000
     44 H16         -2.0980     4.2190    -0.0050 h4         1 TFV       0.022100
@<TRIPOS>BOND
     1     1     2 1   
     2     2     3 1   
     3     2     4 1   
     4     2     5 1   
     5     5     6 ar  
     6     5     8 ar  
     7     6     7 ar  
     8     6    29 1   
     9     7    10 ar  
    10     8     9 ar  
    11     8    30 1   
    12     9    10 ar  
    13     9    31 1   
    14    10    11 1   
    15    11    12 1   
    16    11    32 1   
    17    12    13 1   
    18    12    33 1   
    19    12    34 1   
    20    13    14 1   
    21    13    35 1   
    22    13    36 1   
    23    14    15 1   
    24    14    37 1   
    25    15    16 ar  
    26    15    17 ar  
    27    16    22 ar  
    28    17    18 1   
    29    17    19 ar  
    30    19    20 1   
    31    19    21 ar  
    32    20    38 1   
    33    20    39 1   
    34    20    40 1   
    35    21    22 ar  
    36    22    23 1   
    37    23    24 ar  
    38    23    25 ar  
    39    24    28 ar  
    40    25    26 ar  
    41    25    41 1   
    42    26    27 ar  
    43    26    42 1   
    44    27    28 ar  
    45    27    43 1   
    46    28    44 1   
@<TRIPOS>SUBSTRUCTURE
     1 TFV         1 TEMP              0 ****  ****    0 ROOT
