@<TRIPOS>MOLECULE
TFW
   26    27     1     0     0
SMALL
abcg2


@<TRIPOS>ATOM
      1 N          131.0100     1.4660    -5.4350 n8         1 TFW      -1.003200
      2 CA         130.6850     1.8060    -6.8230 c3         1 TFW       0.020500
      3 C          130.4410     0.5850    -7.7490 c          1 TFW       0.684000
      4 O          130.9820    -0.5030    -7.4280 o          1 TFW      -0.731500
      5 CB         131.8140     2.6640    -7.4400 c3         1 TFW       0.001800
      6 CG         131.9170     4.0360    -6.8620 cc         1 TFW      -0.069400
      7 CD1        132.8540     4.5110    -5.9820 cd         1 TFW      -0.164100
      8 CD2        131.0040     5.1210    -7.1030 ca         1 TFW      -0.068800
      9 NE1        132.5850     5.8260    -5.6550 na         1 TFW      -0.228700
     10 CE2        131.4610     6.2210    -6.3280 ca         1 TFW      -0.081200
     11 CE3        129.8590     5.2540    -7.9060 ca         1 TFW      -0.060000
     12 CZ2        130.7850     7.4330    -6.3530 ca         1 TFW       0.114000
     13 CZ3        129.2150     6.4680    -7.9090 ca         1 TFW       0.098000
     14 CH2        129.6620     7.5550    -7.1450 ca         1 TFW       0.097000
     15 FAC        131.2050     8.4840    -5.6200 f          1 TFW      -0.181000
     16 FAD        128.9910     8.7230    -7.1830 f          1 TFW      -0.167000
     17 FAE        128.1050     6.6590    -8.6620 f          1 TFW      -0.177000
     18 H          130.1790     1.0950    -4.9860 hn         1 TFW       0.384500
     19 H2         131.6610     0.6850    -5.4650 hn         1 TFW       0.384500
     20 HA         129.7680     2.3990    -6.8190 h1         1 TFW       0.042700
     21 HB3        131.6330     2.7350    -8.5160 hc         1 TFW       0.052700
     22 H1         132.7600     2.1320    -7.3080 hc         1 TFW       0.052700
     23 HD1        133.7050     4.0090    -5.5510 h4         1 TFW       0.215000
     24 HE1        133.1330     6.3990    -5.0360 hn         1 TFW       0.349000
     25 HE3        129.4800     4.4390    -8.5070 ha         1 TFW       0.166000
     26 OXT        129.7430     0.7960    -8.7750 o          1 TFW      -0.731500
@<TRIPOS>BOND
     1     1     2 1   
     2     1    18 1   
     3     1    19 1   
     4     2     3 1   
     5     2     5 1   
     6     2    20 1   
     7     3     4 1   
     8     3    26 1   
     9     5     6 1   
    10     5    21 1   
    11     5    22 1   
    12     6     7 2   
    13     6     8 1   
    14     7     9 1   
    15     7    23 1   
    16     8    10 ar  
    17     8    11 ar  
    18     9    10 1   
    19     9    24 1   
    20    10    12 ar  
    21    11    13 ar  
    22    11    25 1   
    23    12    14 ar  
    24    12    15 1   
    25    13    14 ar  
    26    13    17 1   
    27    14    16 1   
@<TRIPOS>SUBSTRUCTURE
     1 TFW         1 TEMP              0 ****  ****    0 ROOT
