@<TRIPOS>MOLECULE
TFW
   26    27     1     0     0
SMALL
No Charge or Current Charge


@<TRIPOS>ATOM
      1 N          130.8600     1.4910    -5.4100 n8         1 TFW      -1.003200
      2 CA         130.6660     1.8050    -6.8770 c3         1 TFW       0.020500
      3 C          130.4310     0.5590    -7.8240 c          1 TFW       0.684000
      4 O          131.2070    -0.3860    -7.7490 o          1 TFW      -0.731500
      5 CB         131.8340     2.6680    -7.4290 c3         1 TFW       0.001800
      6 CG         131.9270     4.0500    -6.8280 cc         1 TFW      -0.069400
      7 CD1        132.9010     4.5300    -5.9570 cd         1 TFW      -0.164100
      8 CD2        131.0310     5.1500    -7.0590 ca         1 TFW      -0.068800
      9 NE1        132.6330     5.8840    -5.6370 na         1 TFW      -0.228700
     10 CE2        131.4840     6.2180    -6.3340 ca         1 TFW      -0.081200
     11 CE3        129.8820     5.2320    -7.8630 ca         1 TFW      -0.060000
     12 CZ2        130.8120     7.4510    -6.3580 ca         1 TFW       0.114000
     13 CZ3        129.1890     6.4600    -7.9020 ca         1 TFW       0.098000
     14 CH2        129.6500     7.5690    -7.1520 ca         1 TFW       0.097000
     15 FAC        131.2720     8.4990    -5.6350 f          1 TFW      -0.181000
     16 FAD        128.9770     8.7450    -7.1980 f          1 TFW      -0.167000
     17 FAE        128.0780     6.5700    -8.6670 f          1 TFW      -0.177000
     18 H          130.0450     0.9640    -5.0710 hn         1 TFW       0.384500
     19 H2         131.6260     0.8110    -5.3250 hn         1 TFW       0.384500
     20 HA         129.7540     2.4130    -6.9480 h1         1 TFW       0.042700
     21 HB3        131.7090     2.7700    -8.5140 hc         1 TFW       0.052700
     22 H1         132.7810     2.1330    -7.2860 hc         1 TFW       0.052700
     23 HD1        133.7580     4.0050    -5.5430 h4         1 TFW       0.215000
     24 HE1        133.1720     6.4890    -5.0230 hn         1 TFW       0.349000
     25 HE3        129.5330     4.3800    -8.4400 ha         1 TFW       0.166000
     26 OXT        129.4240     0.5400    -8.5170 o          1 TFW      -0.731500
@<TRIPOS>BOND
     1     1     2 1   
     2     1    18 1   
     3     1    19 1   
     4     2     3 1   
     5     2     5 1   
     6     2    20 1   
     7     3     4 1   
     8     3    26 1   
     9     5     6 1   
    10     5    21 1   
    11     5    22 1   
    12     6     7 2   
    13     6     8 1   
    14     7     9 1   
    15     7    23 1   
    16     8    10 ar  
    17     8    11 ar  
    18     9    10 1   
    19     9    24 1   
    20    10    12 ar  
    21    11    13 ar  
    22    11    25 1   
    23    12    14 ar  
    24    12    15 1   
    25    13    14 ar  
    26    13    17 1   
    27    14    16 1   
@<TRIPOS>SUBSTRUCTURE
     1 TFW         1 TEMP              0 ****  ****    0 ROOT
