@<TRIPOS>MOLECULE
TFX
   39    41     1     0     0
SMALL
abcg2


@<TRIPOS>ATOM
      1 N1           1.1010     1.0810    -0.2280 na         1 TFX      -0.092500
      2 S1           1.1590    -1.4170     0.1810 ss         1 TFX       0.286800
      3 C2          -3.9780    -0.0630     0.0180 ca         1 TFX       0.408000
      4 N2          -5.3220    -0.1170     0.0610 nh         1 TFX      -0.778400
      5 C3          -3.2150    -1.1010    -0.5740 ca         1 TFX      -0.207000
      6 C4          -1.8460    -1.0450    -0.6000 ca         1 TFX       0.002500
      7 C5          -1.1430     0.0490    -0.0680 ca         1 TFX      -0.302900
      8 C6          -1.8930     1.0810     0.5190 ca         1 TFX       0.002500
      9 C7          -3.2640     1.0300     0.5670 ca         1 TFX      -0.207000
     10 C8           0.2920     0.0430    -0.0700 cc         1 TFX       0.303800
     11 C9           2.4540     0.7740    -0.1340 ca         1 TFX      -0.063200
     12 C10          2.6720    -0.5850     0.0610 ca         1 TFX      -0.215000
     13 C11          3.9520    -1.1110     0.1630 ca         1 TFX      -0.048000
     14 C12          5.0340    -0.2470     0.0730 ca         1 TFX      -0.034300
     15 C13          4.8000     1.1240    -0.1140 ca         1 TFX      -0.063000
     16 C14          3.5280     1.6510    -0.2200 ca         1 TFX      -0.083000
     17 C15         -6.0280    -1.2400    -0.5220 c3         1 TFX       0.197100
     18 C16         -6.0790     0.9670     0.6510 c3         1 TFX       0.197100
     19 C17          0.6690     2.4270    -0.5840 c3         1 TFX       0.032900
     20 C18          6.4370    -0.7700     0.1550 c3         1 TFX      -0.063800
     21 H3          -3.6990    -1.9550    -1.0220 ha         1 TFX       0.136000
     22 H4          -1.3100    -1.8570    -1.0760 ha         1 TFX       0.119500
     23 H6          -1.4010     1.9200     0.9900 ha         1 TFX       0.119500
     24 H7          -3.7850     1.8440     1.0470 ha         1 TFX       0.136000
     25 H11          4.0990    -2.1720     0.3150 ha         1 TFX       0.146000
     26 H13          5.6450     1.7970    -0.1720 ha         1 TFX       0.143000
     27 H14          3.3860     2.7150    -0.3530 ha         1 TFX       0.142000
     28 H15         -5.7220    -2.1870    -0.0720 h1         1 TFX       0.057200
     29 H15A        -7.0920    -1.1220    -0.3470 h1         1 TFX       0.057200
     30 H15B        -5.8690    -1.3060    -1.6010 h1         1 TFX       0.057200
     31 H16         -5.9340     1.9070     0.1140 h1         1 TFX       0.057200
     32 H16A        -7.1370     0.7240     0.6180 h1         1 TFX       0.057200
     33 H16B        -5.8080     1.1250     1.6970 h1         1 TFX       0.057200
     34 H17          0.6470     3.0660     0.2950 h1         1 TFX       0.083367
     35 H17A         1.3660     2.8330    -1.3120 h1         1 TFX       0.083367
     36 H17B        -0.3140     2.3880    -1.0400 h1         1 TFX       0.083367
     37 H18          6.8460    -0.9330    -0.8440 hc         1 TFX       0.064367
     38 H18A         7.0940    -0.0650     0.6630 hc         1 TFX       0.064367
     39 H18B         6.4800    -1.7200     0.6850 hc         1 TFX       0.064367
@<TRIPOS>BOND
     1     1    10 2   
     2     1    11 1   
     3     1    19 1   
     4     2    10 1   
     5     2    12 1   
     6     3     4 1   
     7     3     5 ar  
     8     3     9 ar  
     9     4    17 1   
    10     4    18 1   
    11     5     6 ar  
    12     5    21 1   
    13     6     7 ar  
    14     6    22 1   
    15     7     8 ar  
    16     7    10 1   
    17     8     9 ar  
    18     8    23 1   
    19     9    24 1   
    20    11    12 ar  
    21    11    16 ar  
    22    12    13 ar  
    23    13    14 ar  
    24    13    25 1   
    25    14    15 ar  
    26    14    20 1   
    27    15    16 ar  
    28    15    26 1   
    29    16    27 1   
    30    17    28 1   
    31    17    29 1   
    32    17    30 1   
    33    18    31 1   
    34    18    32 1   
    35    18    33 1   
    36    19    34 1   
    37    19    35 1   
    38    19    36 1   
    39    20    37 1   
    40    20    38 1   
    41    20    39 1   
@<TRIPOS>SUBSTRUCTURE
     1 TFX         1 TEMP              0 ****  ****    0 ROOT
