@<TRIPOS>MOLECULE
TFX
   39    41     1     0     0
SMALL
No Charge or Current Charge


@<TRIPOS>ATOM
      1 N1           1.1290     1.0600    -0.3110 na         1 TFX      -0.092500
      2 S1           1.2540    -1.5990    -0.1330 ss         1 TFX       0.286800
      3 C2          -3.9790    -0.0820     0.0020 ca         1 TFX       0.408000
      4 N2          -5.3950    -0.0870     0.0810 nh         1 TFX      -0.778400
      5 C3          -3.3010    -1.0270    -0.7880 ca         1 TFX      -0.207000
      6 C4          -1.9000    -1.0260    -0.8700 ca         1 TFX       0.002500
      7 C5          -1.1470    -0.0680    -0.1640 ca         1 TFX      -0.302900
      8 C6          -1.8210     0.8720     0.6410 ca         1 TFX       0.002500
      9 C7          -3.2230     0.8640     0.7160 ca         1 TFX      -0.207000
     10 C8           0.3220    -0.0860    -0.2450 cc         1 TFX       0.303800
     11 C9           2.4790     0.7570    -0.1810 ca         1 TFX      -0.063200
     12 C10          2.7260    -0.6010    -0.0770 ca         1 TFX      -0.215000
     13 C11          4.0310    -1.1010     0.0620 ca         1 TFX      -0.048000
     14 C12          5.1110    -0.1950     0.1030 ca         1 TFX      -0.034300
     15 C13          4.8610     1.1910     0.0030 ca         1 TFX      -0.063000
     16 C14          3.5450     1.6760    -0.1370 ca         1 TFX      -0.083000
     17 C15         -6.1750    -1.3400    -0.0660 c3         1 TFX       0.197100
     18 C16         -6.1600     1.1620     0.3150 c3         1 TFX       0.197100
     19 C17          0.6870     2.4390    -0.6040 c3         1 TFX       0.032900
     20 C18          6.5350    -0.7090     0.2500 c3         1 TFX      -0.063800
     21 H3          -3.8590    -1.7630    -1.3570 ha         1 TFX       0.136000
     22 H4          -1.4050    -1.7670    -1.4980 ha         1 TFX       0.119500
     23 H6          -1.2650     1.6020     1.2270 ha         1 TFX       0.119500
     24 H7          -3.7180     1.5900     1.3520 ha         1 TFX       0.136000
     25 H11          4.2050    -2.1730     0.1390 ha         1 TFX       0.146000
     26 H13          5.6900     1.8960     0.0340 ha         1 TFX       0.143000
     27 H14          3.3740     2.7470    -0.2050 ha         1 TFX       0.142000
     28 H15         -5.6290    -2.1900     0.3650 h1         1 TFX       0.057200
     29 H15A        -7.1370    -1.2670     0.4590 h1         1 TFX       0.057200
     30 H15B        -6.3740    -1.5500    -1.1260 h1         1 TFX       0.057200
     31 H16         -5.6690     2.0160    -0.1700 h1         1 TFX       0.057200
     32 H16A        -7.1730     1.0860    -0.1040 h1         1 TFX       0.057200
     33 H16B        -6.2450     1.3690     1.3900 h1         1 TFX       0.057200
     34 H17          0.7270     3.0430     0.3110 h1         1 TFX       0.083367
     35 H17A         1.3380     2.8870    -1.3650 h1         1 TFX       0.083367
     36 H17B        -0.3390     2.4360    -0.9930 h1         1 TFX       0.083367
     37 H18          6.9890    -0.8870    -0.7310 hc         1 TFX       0.064367
     38 H18A         7.1670     0.0100     0.7860 hc         1 TFX       0.064367
     39 H18B         6.5660    -1.6510     0.8100 hc         1 TFX       0.064367
@<TRIPOS>BOND
     1     1    10 2   
     2     1    11 1   
     3     1    19 1   
     4     2    10 1   
     5     2    12 1   
     6     3     4 1   
     7     3     5 ar  
     8     3     9 ar  
     9     4    17 1   
    10     4    18 1   
    11     5     6 ar  
    12     5    21 1   
    13     6     7 ar  
    14     6    22 1   
    15     7     8 ar  
    16     7    10 1   
    17     8     9 ar  
    18     8    23 1   
    19     9    24 1   
    20    11    12 ar  
    21    11    16 ar  
    22    12    13 ar  
    23    13    14 ar  
    24    13    25 1   
    25    14    15 ar  
    26    14    20 1   
    27    15    16 ar  
    28    15    26 1   
    29    16    27 1   
    30    17    28 1   
    31    17    29 1   
    32    17    30 1   
    33    18    31 1   
    34    18    32 1   
    35    18    33 1   
    36    19    34 1   
    37    19    35 1   
    38    19    36 1   
    39    20    37 1   
    40    20    38 1   
    41    20    39 1   
@<TRIPOS>SUBSTRUCTURE
     1 TFX         1 TEMP              0 ****  ****    0 ROOT
