@<TRIPOS>MOLECULE
TFZ
   29    30     1     0     0
SMALL
No Charge or Current Charge


@<TRIPOS>ATOM
      1 N            1.2460    -0.6970     0.0050 ns         1 TFZ      -0.138000
      2 O            0.2010     1.0160     1.1280 o          1 TFZ      -0.552100
      3 F1          -3.7150     1.8850    -0.6060 f          1 TFZ      -0.107000
      4 C2          -2.4370    -0.0660     0.0330 ca         1 TFZ      -0.154300
      5 F2          -1.5780     2.0000    -0.8650 f          1 TFZ      -0.107000
      6 C3          -1.1960    -0.7500     0.2530 ca         1 TFZ      -0.106600
      7 F3          -2.4470     2.0700     1.1370 f          1 TFZ      -0.107000
      8 C4          -1.1950    -2.1690     0.2690 ca         1 TFZ      -0.098000
      9 C5          -2.3770    -2.9020     0.0930 ca         1 TFZ      -0.085000
     10 C6          -3.5880    -2.2330    -0.1010 ca         1 TFZ      -0.100000
     11 C7          -3.6190    -0.8330    -0.1310 ca         1 TFZ      -0.067000
     12 C8           0.1280    -0.0280     0.4910 c          1 TFZ       0.615700
     13 C9           2.6340    -0.3850     0.0190 ca         1 TFZ      -0.023000
     14 C10          3.1480     0.8720     0.4110 ca         1 TFZ      -0.145000
     15 C11          4.5340     1.1100     0.3930 ca         1 TFZ      -0.084000
     16 C12          5.4180     0.1000    -0.0180 ca         1 TFZ      -0.133000
     17 C13          4.9170    -1.1490    -0.4160 ca         1 TFZ      -0.084000
     18 C14          3.5310    -1.3870    -0.3990 ca         1 TFZ      -0.145000
     19 HN           1.0310    -1.5640    -0.4690 hn         1 TFZ       0.155000
     20 H4          -0.2770    -2.7250     0.4500 ha         1 TFZ       0.127000
     21 H5          -2.3530    -3.9890     0.1180 ha         1 TFZ       0.124000
     22 H6          -4.5080    -2.8000    -0.2320 ha         1 TFZ       0.125000
     23 H7          -4.5800    -0.3490    -0.2890 ha         1 TFZ       0.136000
     24 H10          2.4940     1.6800     0.7220 ha         1 TFZ       0.126500
     25 H11          4.9220     2.0800     0.6950 ha         1 TFZ       0.114500
     26 H12          6.4900     0.2860    -0.0320 ha         1 TFZ       0.116000
     27 H13          5.6000    -1.9320    -0.7380 ha         1 TFZ       0.114500
     28 H14          3.1560    -2.3600    -0.7100 ha         1 TFZ       0.126500
     29 C1          -2.5410     1.4740    -0.0730 c3         1 TFZ       0.358300
@<TRIPOS>BOND
     1     1    12 1   
     2     1    13 1   
     3     1    19 1   
     4     2    12 2   
     5     3    29 1   
     6     4     6 ar  
     7     4    11 ar  
     8     4    29 1   
     9     5    29 1   
    10     6     8 ar  
    11     6    12 1   
    12     7    29 1   
    13     8     9 ar  
    14     8    20 1   
    15     9    10 ar  
    16     9    21 1   
    17    10    11 ar  
    18    10    22 1   
    19    11    23 1   
    20    13    14 ar  
    21    13    18 ar  
    22    14    15 ar  
    23    14    24 1   
    24    15    16 ar  
    25    15    25 1   
    26    16    17 ar  
    27    16    26 1   
    28    17    18 ar  
    29    17    27 1   
    30    18    28 1   
@<TRIPOS>SUBSTRUCTURE
     1 TFZ         1 TEMP              0 ****  ****    0 ROOT
