@<TRIPOS>MOLECULE
TFZ
   29    30     1     0     0
SMALL
bcc


@<TRIPOS>ATOM
      1 N            1.1850    -0.7080    -0.0160 ns         1 TFZ      -0.464100
      2 O            0.2260     0.8440     1.3540 o          1 TFZ      -0.552100
      3 F1          -3.1750     1.5510    -1.4790 f          1 TFZ      -0.228300
      4 C2          -2.2820    -0.1620    -0.1360 ca         1 TFZ      -0.154300
      5 F2          -1.0420     1.5070    -1.2450 f          1 TFZ      -0.228300
      6 C3          -1.1640    -0.8190     0.3870 ca         1 TFZ      -0.106600
      7 F3          -2.2990     2.1400     0.3880 f          1 TFZ      -0.228300
      8 C4          -1.2790    -2.1440     0.7890 ca         1 TFZ      -0.116000
      9 C5          -2.4930    -2.8100     0.6960 ca         1 TFZ      -0.103000
     10 C6          -3.6000    -2.1530     0.1870 ca         1 TFZ      -0.118000
     11 C7          -3.4920    -0.8360    -0.2360 ca         1 TFZ      -0.085000
     12 C8           0.1460    -0.1230     0.6220 c          1 TFZ       0.682700
     13 C9           2.5410    -0.3540     0.0030 ca         1 TFZ       0.069600
     14 C10          3.1110     0.5170     0.9310 ca         1 TFZ      -0.163000
     15 C11          4.4720     0.7870     0.8690 ca         1 TFZ      -0.102000
     16 C12          5.2790     0.2060    -0.0980 ca         1 TFZ      -0.151000
     17 C13          4.7090    -0.6650    -1.0170 ca         1 TFZ      -0.102000
     18 C14          3.3530    -0.9420    -0.9700 ca         1 TFZ      -0.163000
     19 HN           0.9510    -1.4560    -0.6530 hn         1 TFZ       0.321500
     20 H4          -0.4180    -2.6580     1.1970 ha         1 TFZ       0.145000
     21 H5          -2.5700    -3.8380     1.0230 ha         1 TFZ       0.142000
     22 H6          -4.5510    -2.6620     0.1090 ha         1 TFZ       0.143000
     23 H7          -4.3630    -0.3460    -0.6480 ha         1 TFZ       0.154000
     24 H10          2.5160     0.9810     1.7010 ha         1 TFZ       0.144500
     25 H11          4.9030     1.4630     1.5970 ha         1 TFZ       0.132500
     26 H12          6.3370     0.4270    -0.1340 ha         1 TFZ       0.134000
     27 H13          5.3190    -1.1320    -1.7790 ha         1 TFZ       0.132500
     28 H14          2.9170    -1.6200    -1.6940 ha         1 TFZ       0.144500
     29 C1          -2.1970     1.2590    -0.6140 c3         1 TFZ       0.722200
@<TRIPOS>BOND
     1     1    12 1   
     2     1    13 1   
     3     1    19 1   
     4     2    12 2   
     5     3    29 1   
     6     4     6 ar  
     7     4    11 ar  
     8     4    29 1   
     9     5    29 1   
    10     6     8 ar  
    11     6    12 1   
    12     7    29 1   
    13     8     9 ar  
    14     8    20 1   
    15     9    10 ar  
    16     9    21 1   
    17    10    11 ar  
    18    10    22 1   
    19    11    23 1   
    20    13    14 ar  
    21    13    18 ar  
    22    14    15 ar  
    23    14    24 1   
    24    15    16 ar  
    25    15    25 1   
    26    16    17 ar  
    27    16    26 1   
    28    17    18 ar  
    29    17    27 1   
    30    18    28 1   
@<TRIPOS>SUBSTRUCTURE
     1 TFZ         1 TEMP              0 ****  ****    0 ROOT
