@<TRIPOS>MOLECULE
TG0
   58    61     1     0     0
SMALL
No Charge or Current Charge


@<TRIPOS>ATOM
      1 N01         -6.2540     3.1620     0.4920 nv         1 TG0      -1.074000
      2 C02         -5.6640     2.1720     1.2390 ca         1 TG0       0.285000
      3 C03         -4.5250     1.4690     0.7720 ca         1 TG0      -0.102300
      4 C04         -3.8800     1.8560    -0.5670 c3         1 TG0      -0.058800
      5 C05         -3.9730     0.4330     1.5800 ca         1 TG0      -0.099600
      6 C06         -2.7860    -0.3950     1.1470 c          1 TG0       0.626700
      7 N07         -2.9370    -1.2200     0.0130 n          1 TG0      -0.392800
      8 C08         -1.8130    -2.0330    -0.5310 c5         1 TG0       0.027700
      9 C09         -0.8520    -1.2390    -1.4730 c          1 TG0       0.597100
     10 N10          0.3230    -1.9430    -1.6260 ns         1 TG0      -0.498900
     11 C11          1.4700    -1.4800    -2.4070 c3         1 TG0       0.146300
     12 C12          2.4830    -0.7630    -1.5260 ca         1 TG0      -0.106300
     13 C13          3.5500    -1.4730    -0.9440 ca         1 TG0      -0.101500
     14 C14          4.4810    -0.8100    -0.1260 ca         1 TG0      -0.094500
     15 C15          4.3620     0.5710     0.1160 ca         1 TG0      -0.011000
     16 C16          5.3320     1.2430     0.9780 cc         1 TG0      -0.177000
     17 C17          6.0300     2.3660     0.5770 cd         1 TG0       0.300300
     18 C18          5.9300     3.0840    -0.7430 c3         1 TG0      -0.122400
     19 N19          6.9250     2.8360     1.5280 nd         1 TG0      -0.637000
     20 C20          6.8980     2.0520     2.6030 cc         1 TG0       0.413300
     21 S21          5.8150     0.6840     2.5490 ss         1 TG0      -0.039400
     22 C22          3.2850     1.2770    -0.4550 ca         1 TG0      -0.094500
     23 C23          2.3530     0.6150    -1.2730 ca         1 TG0      -0.101500
     24 O24         -1.0570    -0.1530    -2.0010 o          1 TG0      -0.595100
     25 C25         -2.5830    -3.1100    -1.3600 c5         1 TG0      -0.083400
     26 C26         -3.8310    -2.3360    -1.8540 c5         1 TG0       0.153300
     27 O27         -4.8390    -3.2230    -2.3450 oh         1 TG0      -0.649000
     28 C28         -4.2530    -1.6050    -0.5480 c5         1 TG0       0.073000
     29 O29         -1.7180    -0.3310     1.7440 o          1 TG0      -0.605100
     30 C30         -4.5320     0.1670     2.8470 ca         1 TG0      -0.126000
     31 C31         -5.6510     0.8780     3.3010 ca         1 TG0      -0.078000
     32 C32         -6.2190     1.8710     2.4910 ca         1 TG0      -0.168000
     33 H011        -5.8160     3.4800    -0.3690 hn         1 TG0       0.449000
     34 H012        -6.9920     3.7370     0.8930 hn         1 TG0       0.449000
     35 H32         -7.0910     2.4130     2.8470 ha         1 TG0       0.112000
     36 H041        -3.8000     2.9450    -0.6720 hc         1 TG0       0.051700
     37 H042        -2.8610     1.4710    -0.6740 hc         1 TG0       0.051700
     38 H043        -4.4680     1.4830    -1.4140 hc         1 TG0       0.051700
     39 H30         -4.1030    -0.6110     3.4760 ha         1 TG0       0.120000
     40 H08         -1.2190    -2.4930     0.2700 h1         1 TG0       0.075700
     41 H281        -4.7870    -2.2740     0.1400 h1         1 TG0       0.062200
     42 H282        -4.8940    -0.7420    -0.7620 h1         1 TG0       0.062200
     43 H251        -1.9930    -3.5260    -2.1850 hc         1 TG0       0.069700
     44 H252        -2.8740    -3.9510    -0.7210 hc         1 TG0       0.069700
     45 H10          0.4010    -2.8280    -1.1380 hn         1 TG0       0.316500
     46 H111         1.9440    -2.3480    -2.8850 h1         1 TG0       0.064700
     47 H112         1.1290    -0.8090    -3.2070 h1         1 TG0       0.064700
     48 H13          3.6590    -2.5410    -1.1240 ha         1 TG0       0.125500
     49 H23          1.5250     1.1740    -1.7050 ha         1 TG0       0.125500
     50 H14          5.3010    -1.3700     0.3160 ha         1 TG0       0.120000
     51 H22          3.1610     2.3390    -0.2560 ha         1 TG0       0.120000
     52 H181         5.0980     3.7980    -0.7370 hc         1 TG0       0.052700
     53 H182         6.8470     3.6430    -0.9630 hc         1 TG0       0.052700
     54 H183         5.7690     2.3800    -1.5670 hc         1 TG0       0.052700
     55 H20          7.5050     2.2040     3.4870 h5         1 TG0       0.051100
     56 H26         -3.5480    -1.6060    -2.6260 h1         1 TG0       0.059700
     57 H27         -5.5700    -2.6660    -2.6940 ho         1 TG0       0.451000
     58 H31         -6.0810     0.6550     4.2750 ha         1 TG0       0.114000
@<TRIPOS>BOND
     1     1     2 1   
     2     1    33 1   
     3     1    34 1   
     4     2     3 ar  
     5     2    32 ar  
     6     3     4 1   
     7     3     5 ar  
     8     4    36 1   
     9     4    37 1   
    10     4    38 1   
    11     5     6 1   
    12     5    30 ar  
    13     6     7 1   
    14     6    29 2   
    15     7     8 1   
    16     7    28 1   
    17     8     9 1   
    18     8    25 1   
    19     8    40 1   
    20     9    10 1   
    21     9    24 2   
    22    10    11 1   
    23    10    45 1   
    24    11    12 1   
    25    11    46 1   
    26    11    47 1   
    27    12    13 ar  
    28    12    23 ar  
    29    13    14 ar  
    30    13    48 1   
    31    14    15 ar  
    32    14    50 1   
    33    15    16 1   
    34    15    22 ar  
    35    16    17 2   
    36    16    21 1   
    37    17    18 1   
    38    17    19 1   
    39    18    52 1   
    40    18    53 1   
    41    18    54 1   
    42    19    20 2   
    43    20    21 1   
    44    20    55 1   
    45    22    23 ar  
    46    22    51 1   
    47    23    49 1   
    48    25    26 1   
    49    25    43 1   
    50    25    44 1   
    51    26    27 1   
    52    26    28 1   
    53    26    56 1   
    54    27    57 1   
    55    28    41 1   
    56    28    42 1   
    57    30    31 ar  
    58    30    39 1   
    59    31    32 ar  
    60    31    58 1   
    61    32    35 1   
@<TRIPOS>SUBSTRUCTURE
     1 TG0         1 TEMP              0 ****  ****    0 ROOT
