@<TRIPOS>MOLECULE
TG0
   58    61     1     0     0
SMALL
bcc


@<TRIPOS>ATOM
      1 N01         -5.1820     3.7150     0.0610 nv         1 TG0      -0.825200
      2 C02         -4.8320     2.6370     0.8480 ca         1 TG0       0.146600
      3 C03         -3.8780     1.7070     0.3890 ca         1 TG0      -0.102300
      4 C04         -3.2280     1.9280    -0.9460 c3         1 TG0      -0.058800
      5 C05         -3.5830     0.6070     1.1910 ca         1 TG0      -0.099600
      6 C06         -2.5280    -0.3740     0.7800 c          1 TG0       0.693700
      7 N07         -2.9280    -1.3960     0.0130 n          1 TG0      -0.459800
      8 C08         -1.9820    -2.4130    -0.4080 c5         1 TG0       0.027700
      9 C09         -0.9330    -1.8210    -1.3470 c          1 TG0       0.664100
     10 N10          0.2690    -2.4130    -1.2660 ns         1 TG0      -0.565900
     11 C11          1.4050    -2.0420    -2.0670 c3         1 TG0       0.146300
     12 C12          2.3970    -1.1530    -1.3540 ca         1 TG0      -0.106300
     13 C13          3.6970    -1.0580    -1.8450 ca         1 TG0      -0.119500
     14 C14          4.6300    -0.2340    -1.2400 ca         1 TG0      -0.112500
     15 C15          4.2910     0.5200    -0.1140 ca         1 TG0      -0.011000
     16 C16          5.2730     1.3890     0.5360 cc         1 TG0      -0.097400
     17 C17          5.1340     2.6640     1.0160 cd         1 TG0       0.365600
     18 C18          3.9020     3.5040     0.9550 c3         1 TG0      -0.122400
     19 N19          6.2670     3.1920     1.5750 nd         1 TG0      -0.637000
     20 C20          7.2540     2.3600     1.5320 cc         1 TG0       0.413300
     21 S21          6.8930     0.8520     0.8060 ss         1 TG0      -0.184300
     22 C22          2.9940     0.4100     0.3850 ca         1 TG0      -0.112500
     23 C23          2.0570    -0.4080    -0.2310 ca         1 TG0      -0.119500
     24 O24         -1.2030    -0.9290    -2.1340 o          1 TG0      -0.595100
     25 C25         -2.8640    -3.4350    -1.1340 c5         1 TG0      -0.083400
     26 C26         -4.0290    -2.6050    -1.6540 c5         1 TG0       0.130100
     27 O27         -5.1320    -3.4210    -1.9380 oh         1 TG0      -0.586800
     28 C28         -4.2660    -1.6130    -0.5110 c5         1 TG0       0.073000
     29 O29         -1.3690    -0.2590     1.1620 o          1 TG0      -0.605100
     30 C30         -4.2130     0.4020     2.4160 ca         1 TG0      -0.144000
     31 C31         -5.1580     1.3180     2.8490 ca         1 TG0      -0.096000
     32 C32         -5.4620     2.4270     2.0780 ca         1 TG0      -0.186000
     33 H011        -4.4640     4.0850    -0.5400 hn         1 TG0       0.393800
     34 H012        -5.6750     4.4520     0.5390 hn         1 TG0       0.393800
     35 H32         -6.1940     3.1450     2.4290 ha         1 TG0       0.130000
     36 H041        -2.5730     2.8040    -0.9330 hc         1 TG0       0.051700
     37 H042        -2.6270     1.0810    -1.2720 hc         1 TG0       0.051700
     38 H043        -3.9810     2.1050    -1.7180 hc         1 TG0       0.051700
     39 H30         -3.9690    -0.4620     3.0210 ha         1 TG0       0.138000
     40 H08         -1.4930    -2.8620     0.4600 h1         1 TG0       0.075700
     41 H281        -4.9200    -2.0610     0.2430 h1         1 TG0       0.062200
     42 H282        -4.7210    -0.6830    -0.8500 h1         1 TG0       0.062200
     43 H251        -2.3310    -3.9750    -1.9170 hc         1 TG0       0.069700
     44 H252        -3.2340    -4.1690    -0.4150 hc         1 TG0       0.069700
     45 H10          0.4140    -3.1120    -0.5550 hn         1 TG0       0.316500
     46 H111         1.9070    -2.9510    -2.4020 h1         1 TG0       0.064700
     47 H112         1.0460    -1.5390    -2.9660 h1         1 TG0       0.064700
     48 H13          3.9870    -1.6340    -2.7160 ha         1 TG0       0.143500
     49 H23          1.0610    -0.4710     0.1880 ha         1 TG0       0.143500
     50 H14          5.6280    -0.1710    -1.6550 ha         1 TG0       0.138000
     51 H22          2.7120     0.9530     1.2790 ha         1 TG0       0.138000
     52 H181         3.3920     3.5300     1.9200 hc         1 TG0       0.052700
     53 H182         4.1590     4.5310     0.6960 hc         1 TG0       0.052700
     54 H183         3.1940     3.1320     0.2170 hc         1 TG0       0.052700
     55 H20          8.2430     2.5700     1.9170 h5         1 TG0       0.051100
     56 H26         -3.7100    -2.0480    -2.5420 h1         1 TG0       0.059700
     57 H27         -5.7780    -2.9020    -2.4280 ho         1 TG0       0.412000
     58 H31         -5.6570     1.1740     3.7990 ha         1 TG0       0.132000
@<TRIPOS>BOND
     1     1     2 1   
     2     1    33 1   
     3     1    34 1   
     4     2     3 ar  
     5     2    32 ar  
     6     3     4 1   
     7     3     5 ar  
     8     4    36 1   
     9     4    37 1   
    10     4    38 1   
    11     5     6 1   
    12     5    30 ar  
    13     6     7 1   
    14     6    29 2   
    15     7     8 1   
    16     7    28 1   
    17     8     9 1   
    18     8    25 1   
    19     8    40 1   
    20     9    10 1   
    21     9    24 2   
    22    10    11 1   
    23    10    45 1   
    24    11    12 1   
    25    11    46 1   
    26    11    47 1   
    27    12    13 ar  
    28    12    23 ar  
    29    13    14 ar  
    30    13    48 1   
    31    14    15 ar  
    32    14    50 1   
    33    15    16 1   
    34    15    22 ar  
    35    16    17 2   
    36    16    21 1   
    37    17    18 1   
    38    17    19 1   
    39    18    52 1   
    40    18    53 1   
    41    18    54 1   
    42    19    20 2   
    43    20    21 1   
    44    20    55 1   
    45    22    23 ar  
    46    22    51 1   
    47    23    49 1   
    48    25    26 1   
    49    25    43 1   
    50    25    44 1   
    51    26    27 1   
    52    26    28 1   
    53    26    56 1   
    54    27    57 1   
    55    28    41 1   
    56    28    42 1   
    57    30    31 ar  
    58    30    39 1   
    59    31    32 ar  
    60    31    58 1   
    61    32    35 1   
@<TRIPOS>SUBSTRUCTURE
     1 TG0         1 TEMP              0 ****  ****    0 ROOT
