@<TRIPOS>MOLECULE
TG1
   96    98     1     0     0
SMALL
abcg2


@<TRIPOS>ATOM
      1 C34         -5.2120     0.7090    -3.3710 c3         1 TG1      -0.119100
      2 C11         -4.7130    -0.0440    -2.1580 c5         1 TG1       0.049000
      3 C7          -3.3070     0.3380    -1.6360 c5         1 TG1       0.150000
      4 C8          -3.1820     1.6830    -0.9170 c3         1 TG1       0.173300
      5 C9          -1.7550     2.1320    -0.6180 c3         1 TG1      -0.103400
      6 C10         -0.8350     1.2300     0.2170 c3         1 TG1       0.229000
      7 C1          -0.4800    -0.0770    -0.5370 c5         1 TG1      -0.016500
      8 C2           0.7430    -0.7940     0.0530 c5         1 TG1       0.154300
      9 O1           1.9270    -0.3920    -0.6210 os         1 TG1      -0.431100
     10 C13          3.0340    -0.1670     0.0840 c          1 TG1       0.610100
     11 O2           3.1130    -0.3150     1.2770 o          1 TG1      -0.496000
     12 C14          4.1510     0.3080    -0.8030 c3         1 TG1      -0.137400
     13 C15          5.4560     0.5480    -0.0620 c3         1 TG1      -0.068400
     14 C16          6.5300     1.1400    -0.9660 c3         1 TG1      -0.075400
     15 C17          7.8460     1.3720    -0.2350 c3         1 TG1      -0.074400
     16 C18          8.8880     2.0950    -1.0770 c3         1 TG1      -0.075400
     17 C19         10.2010     2.3270    -0.3390 c3         1 TG1      -0.075400
     18 C20         11.2200     3.0950    -1.1690 c3         1 TG1      -0.088100
     19 C3           0.4630    -2.2840    -0.1160 c5         1 TG1       0.177500
     20 O3           0.9450    -3.0460     0.9880 os         1 TG1      -0.438100
     21 C21          2.2020    -3.4950     0.9610 c          1 TG1       0.610300
     22 O4           2.9480    -3.3080     0.0310 o          1 TG1      -0.492000
     23 C22          2.5340    -4.2460     2.1930 ce         1 TG1      -0.175400
     24 C23          1.4040    -4.8400     2.9870 c3         1 TG1      -0.038900
     25 C24          3.8090    -4.3660     2.5860 c2         1 TG1      -0.129200
     26 C25          5.0470    -3.8000     1.9690 c3         1 TG1      -0.066900
     27 C4          -1.0350    -2.3550    -0.1850 c2         1 TG1      -0.064400
     28 C26         -1.7260    -3.6650    -0.0170 c3         1 TG1      -0.044900
     29 C5          -1.5380    -1.1570    -0.4980 c2         1 TG1      -0.125400
     30 C6          -2.9850    -0.9010    -0.7920 c5         1 TG1       0.248500
     31 O5          -3.5190    -1.9750    -1.5930 os         1 TG1      -0.410100
     32 C12         -4.4660    -1.5340    -2.4170 c          1 TG1       0.641100
     33 O12         -5.0410    -2.2590    -3.1790 o          1 TG1      -0.483000
     34 C31         -1.3450     0.9420     1.6250 c3         1 TG1      -0.114100
     35 O9           0.4610     1.8840     0.2660 os         1 TG1      -0.476100
     36 C32          0.7200     3.0090     0.9260 c          1 TG1       0.608100
     37 O10         -0.0920     3.6600     1.5320 o          1 TG1      -0.491000
     38 C33          2.1790     3.3540     0.8220 c3         1 TG1      -0.160100
     39 O7          -3.9260     1.6480     0.2930 os         1 TG1      -0.442100
     40 C27         -5.0390     2.3770     0.4170 c          1 TG1       0.614100
     41 O8          -5.4140     3.1710    -0.4060 o          1 TG1      -0.491000
     42 C28         -5.7270     2.0790     1.7170 c3         1 TG1      -0.137400
     43 C29         -6.9120     2.9870     2.0070 c3         1 TG1      -0.067400
     44 C30         -7.5660     2.6410     3.3370 c3         1 TG1      -0.092100
     45 O6          -2.4310     0.2900    -2.7330 oh         1 TG1      -0.640000
     46 O11         -5.6290     0.0200    -1.0890 oh         1 TG1      -0.651000
     47 H341        -4.5410     0.6360    -4.2250 hc         1 TG1       0.060700
     48 H342        -6.1710     0.2980    -3.6900 hc         1 TG1       0.060700
     49 H343        -5.3670     1.7620    -3.1320 hc         1 TG1       0.060700
     50 HC8         -3.5970     2.4480    -1.5810 h1         1 TG1       0.072700
     51 HC91        -1.2610     2.3330    -1.5700 hc         1 TG1       0.072200
     52 HC92        -1.8500     3.0990    -0.1210 hc         1 TG1       0.072200
     53 HC1         -0.2600     0.1880    -1.5760 hc         1 TG1       0.099700
     54 HC2          0.8320    -0.5880     1.1210 h1         1 TG1       0.090700
     55 H141         4.2890    -0.4240    -1.6050 hc         1 TG1       0.073200
     56 H142         3.8180     1.2250    -1.3000 hc         1 TG1       0.073200
     57 H151         5.2870     1.2280     0.7780 hc         1 TG1       0.051700
     58 H152         5.8140    -0.3910     0.3700 hc         1 TG1       0.051700
     59 H161         6.6960     0.4830    -1.8260 hc         1 TG1       0.037700
     60 H162         6.1710     2.0910    -1.3750 hc         1 TG1       0.037700
     61 H171         7.6540     1.9520     0.6740 hc         1 TG1       0.038700
     62 H172         8.2500     0.4100     0.1020 hc         1 TG1       0.038700
     63 H181         9.0830     1.5270    -1.9940 hc         1 TG1       0.036700
     64 H182         8.4810     3.0600    -1.4020 hc         1 TG1       0.036700
     65 H191         9.9990     2.8720     0.5890 hc         1 TG1       0.037200
     66 H192        10.6230     1.3630    -0.0370 hc         1 TG1       0.037200
     67 H201        11.4620     2.5620    -2.0910 hc         1 TG1       0.031700
     68 H202        10.8360     4.0780    -1.4510 hc         1 TG1       0.031700
     69 H203        12.1510     3.2480    -0.6230 hc         1 TG1       0.031700
     70 HC3          0.8960    -2.6670    -1.0470 h1         1 TG1       0.096700
     71 H231         0.7510    -5.4570     2.3670 hc         1 TG1       0.044367
     72 H232         1.7950    -5.4660     3.7880 hc         1 TG1       0.044367
     73 H233         0.7800    -4.0710     3.4430 hc         1 TG1       0.044367
     74 H24          3.9700    -4.9410     3.4920 ha         1 TG1       0.169000
     75 H251         5.8370    -3.7430     2.7160 hc         1 TG1       0.054033
     76 H252         5.4130    -4.4410     1.1630 hc         1 TG1       0.054033
     77 H253         4.8980    -2.8080     1.5480 hc         1 TG1       0.054033
     78 H261        -1.2750    -4.2290     0.8000 hc         1 TG1       0.054367
     79 H262        -2.7840    -3.5580     0.2030 hc         1 TG1       0.054367
     80 H263        -1.6300    -4.2790    -0.9160 hc         1 TG1       0.054367
     81 HC6         -3.5560    -0.8720     0.1410 h1         1 TG1       0.097700
     82 H311        -2.1720     0.2360     1.6050 hc         1 TG1       0.057033
     83 H312        -0.5630     0.4970     2.2420 hc         1 TG1       0.057033
     84 H313        -1.6960     1.8390     2.1270 hc         1 TG1       0.057033
     85 H331         2.5100     3.3380    -0.2170 hc         1 TG1       0.071033
     86 H332         2.3680     4.3380     1.2420 hc         1 TG1       0.071033
     87 H333         2.7730     2.6210     1.3690 hc         1 TG1       0.071033
     88 H281        -6.0440     1.0320     1.6880 hc         1 TG1       0.075200
     89 H282        -4.9900     2.1380     2.5230 hc         1 TG1       0.075200
     90 H291        -6.5840     4.0280     2.0190 hc         1 TG1       0.053200
     91 H292        -7.6470     2.9030     1.2040 hc         1 TG1       0.053200
     92 H301        -7.9370     1.6150     3.3420 hc         1 TG1       0.035033
     93 H302        -6.8600     2.7400     4.1640 hc         1 TG1       0.035033
     94 H303        -8.4100     3.2990     3.5440 hc         1 TG1       0.035033
     95 HO6         -2.5680     1.0530    -3.3060 ho         1 TG1       0.454000
     96 HO11        -6.5160    -0.1480    -1.4270 ho         1 TG1       0.466000
@<TRIPOS>BOND
     1     1     2 1   
     2     1    47 1   
     3     1    48 1   
     4     1    49 1   
     5     2     3 1   
     6     2    32 1   
     7     2    46 1   
     8     3     4 1   
     9     3    30 1   
    10     3    45 1   
    11     4     5 1   
    12     4    39 1   
    13     4    50 1   
    14     5     6 1   
    15     5    51 1   
    16     5    52 1   
    17     6     7 1   
    18     6    34 1   
    19     6    35 1   
    20     7     8 1   
    21     7    29 1   
    22     7    53 1   
    23     8     9 1   
    24     8    19 1   
    25     8    54 1   
    26     9    10 1   
    27    10    11 2   
    28    10    12 1   
    29    12    13 1   
    30    12    55 1   
    31    12    56 1   
    32    13    14 1   
    33    13    57 1   
    34    13    58 1   
    35    14    15 1   
    36    14    59 1   
    37    14    60 1   
    38    15    16 1   
    39    15    61 1   
    40    15    62 1   
    41    16    17 1   
    42    16    63 1   
    43    16    64 1   
    44    17    18 1   
    45    17    65 1   
    46    17    66 1   
    47    18    67 1   
    48    18    68 1   
    49    18    69 1   
    50    19    20 1   
    51    19    27 1   
    52    19    70 1   
    53    20    21 1   
    54    21    22 2   
    55    21    23 1   
    56    23    24 1   
    57    23    25 2   
    58    24    71 1   
    59    24    72 1   
    60    24    73 1   
    61    25    26 1   
    62    25    74 1   
    63    26    75 1   
    64    26    76 1   
    65    26    77 1   
    66    27    28 1   
    67    27    29 2   
    68    28    78 1   
    69    28    79 1   
    70    28    80 1   
    71    29    30 1   
    72    30    31 1   
    73    30    81 1   
    74    31    32 1   
    75    32    33 2   
    76    34    82 1   
    77    34    83 1   
    78    34    84 1   
    79    35    36 1   
    80    36    37 2   
    81    36    38 1   
    82    38    85 1   
    83    38    86 1   
    84    38    87 1   
    85    39    40 1   
    86    40    41 2   
    87    40    42 1   
    88    42    43 1   
    89    42    88 1   
    90    42    89 1   
    91    43    44 1   
    92    43    90 1   
    93    43    91 1   
    94    44    92 1   
    95    44    93 1   
    96    44    94 1   
    97    45    95 1   
    98    46    96 1   
@<TRIPOS>SUBSTRUCTURE
     1 TG1         1 TEMP              0 ****  ****    0 ROOT
