@<TRIPOS>MOLECULE
TG1
   96    98     1     0     0
SMALL
No Charge or Current Charge


@<TRIPOS>ATOM
      1 C34         -4.0190     1.6680    -3.8520 c3         1 TG1      -0.119100
      2 C11         -3.8500     0.6760    -2.6670 c5         1 TG1       0.049000
      3 C7          -2.4920     0.7880    -1.8660 c5         1 TG1       0.150000
      4 C8          -2.3810     1.9880    -0.8620 c3         1 TG1       0.173300
      5 C9          -0.9800     2.2060    -0.2280 c3         1 TG1      -0.103400
      6 C10         -0.3510     1.0320     0.5930 c3         1 TG1       0.229000
      7 C1          -0.0670    -0.2550    -0.2730 c5         1 TG1      -0.016500
      8 C2           0.9540    -1.2350     0.4310 c5         1 TG1       0.154300
      9 O1           2.2490    -1.0500    -0.2090 os         1 TG1      -0.431100
     10 C13          3.3470    -1.1930     0.6070 c          1 TG1       0.610100
     11 O2           3.3170    -1.3190     1.8250 o          1 TG1      -0.496000
     12 C14          4.6410    -0.9570    -0.1720 c3         1 TG1      -0.137400
     13 C15          5.0070     0.5450    -0.2000 c3         1 TG1      -0.068400
     14 C16          6.2910     0.8430    -1.0030 c3         1 TG1      -0.075400
     15 C17          6.6490     2.3450    -1.0260 c3         1 TG1      -0.074400
     16 C18          7.9330     2.6480    -1.8300 c3         1 TG1      -0.075400
     17 C19          8.2910     4.1500    -1.8530 c3         1 TG1      -0.075400
     18 C20          9.5710     4.4530    -2.6550 c3         1 TG1      -0.088100
     19 C3           0.4300    -2.6790     0.1040 c5         1 TG1       0.177500
     20 O3           0.4340    -3.4580     1.3320 os         1 TG1      -0.438100
     21 C21          1.6190    -4.0910     1.6320 c          1 TG1       0.610300
     22 O4           2.5610    -4.1810     0.8550 o          1 TG1      -0.492000
     23 C22          1.5830    -4.7190     3.0100 ce         1 TG1      -0.175400
     24 C23          0.3000    -4.5370     3.8200 c3         1 TG1      -0.038900
     25 C24          2.6220    -5.4150     3.5480 c2         1 TG1      -0.129200
     26 C25          3.9780    -5.7050     2.9330 c3         1 TG1      -0.066900
     27 C4          -1.0130    -2.4780    -0.3000 c2         1 TG1      -0.064400
     28 C26         -1.9660    -3.6600    -0.4050 c3         1 TG1      -0.044900
     29 C5          -1.2490    -1.1880    -0.5790 c2         1 TG1      -0.125400
     30 C6          -2.5650    -0.6260    -1.1710 c5         1 TG1       0.248500
     31 O5          -2.9680    -1.5040    -2.2530 os         1 TG1      -0.410100
     32 C12         -3.7520    -0.8150    -3.1330 c          1 TG1       0.641100
     33 O12         -4.2550    -1.3250    -4.1260 o          1 TG1      -0.483000
     34 C31         -1.1340     0.6840     1.8980 c3         1 TG1      -0.114100
     35 O9           0.9820     1.4700     0.9750 os         1 TG1      -0.476100
     36 C32          1.2360     2.5120     1.8380 c          1 TG1       0.608100
     37 O10          0.4020     3.1970     2.4100 o          1 TG1      -0.491000
     38 C33          2.7330     2.7010     2.0250 c3         1 TG1      -0.160100
     39 O7          -3.3240     1.7980     0.2140 os         1 TG1      -0.442100
     40 C27         -3.8150     2.8900     0.8820 c          1 TG1       0.614100
     41 O8          -3.5680     4.0540     0.5960 o          1 TG1      -0.491000
     42 C28         -4.7730     2.4780     2.0000 c3         1 TG1      -0.137400
     43 C29         -6.2370     2.4420     1.5020 c3         1 TG1      -0.067400
     44 C30         -7.2350     2.0210     2.5980 c3         1 TG1      -0.092100
     45 O6          -1.3950     0.8730    -2.8040 oh         1 TG1      -0.640000
     46 O11         -5.0330     0.8370    -1.8480 oh         1 TG1      -0.651000
     47 H341        -3.2350     1.5400    -4.6080 hc         1 TG1       0.060700
     48 H342        -4.9770     1.5190    -4.3660 hc         1 TG1       0.060700
     49 H343        -3.9890     2.7100    -3.5090 hc         1 TG1       0.060700
     50 HC8         -2.6400     2.8910    -1.4320 h1         1 TG1       0.072700
     51 HC91        -0.2790     2.4780    -1.0270 hc         1 TG1       0.072200
     52 HC92        -1.0480     3.1020     0.3950 hc         1 TG1       0.072200
     53 HC1          0.3780     0.0930    -1.2110 hc         1 TG1       0.099700
     54 HC2          0.9930    -1.0560     1.5130 h1         1 TG1       0.090700
     55 H141         5.4550    -1.5190     0.3020 hc         1 TG1       0.073200
     56 H142         4.4960    -1.2840    -1.2080 hc         1 TG1       0.073200
     57 H151         4.1720     1.1110    -0.6320 hc         1 TG1       0.051700
     58 H152         5.1360     0.9020     0.8300 hc         1 TG1       0.051700
     59 H161         7.1270     0.2790    -0.5710 hc         1 TG1       0.037700
     60 H162         6.1620     0.4880    -2.0330 hc         1 TG1       0.037700
     61 H171         5.8130     2.9090    -1.4580 hc         1 TG1       0.038700
     62 H172         6.7770     2.7010     0.0040 hc         1 TG1       0.038700
     63 H181         8.7700     2.0850    -1.3980 hc         1 TG1       0.036700
     64 H182         7.8050     2.2930    -2.8600 hc         1 TG1       0.036700
     65 H191         7.4570     4.7160    -2.2860 hc         1 TG1       0.037200
     66 H192         8.4220     4.5090    -0.8240 hc         1 TG1       0.037200
     67 H201        10.4320     3.9280    -2.2240 hc         1 TG1       0.031700
     68 H202         9.4590     4.1370    -3.6990 hc         1 TG1       0.031700
     69 H203         9.7840     5.5280    -2.6430 hc         1 TG1       0.031700
     70 HC3          0.9900    -3.1760    -0.7000 h1         1 TG1       0.096700
     71 H231        -0.5610    -4.9840     3.3070 hc         1 TG1       0.044367
     72 H232         0.3630    -5.0060     4.8090 hc         1 TG1       0.044367
     73 H233         0.0780    -3.4750     3.9820 hc         1 TG1       0.044367
     74 H24          2.5210    -5.8370     4.5500 ha         1 TG1       0.169000
     75 H251         4.6090    -6.2760     3.6240 hc         1 TG1       0.054033
     76 H252         3.8800    -6.2930     2.0130 hc         1 TG1       0.054033
     77 H253         4.5110    -4.7770     2.6910 hc         1 TG1       0.054033
     78 H261        -1.9620    -4.2500     0.5190 hc         1 TG1       0.054367
     79 H262        -3.0040    -3.3570    -0.5740 hc         1 TG1       0.054367
     80 H263        -1.6710    -4.3270    -1.2240 hc         1 TG1       0.054367
     81 HC6         -3.3590    -0.6400    -0.4110 h1         1 TG1       0.097700
     82 H311        -1.9820     0.0220     1.6920 hc         1 TG1       0.057033
     83 H312        -0.4920     0.1780     2.6290 hc         1 TG1       0.057033
     84 H313        -1.5430     1.5800     2.3760 hc         1 TG1       0.057033
     85 H331         3.1910     2.8680     1.0440 hc         1 TG1       0.071033
     86 H332         2.9730     3.5040     2.7290 hc         1 TG1       0.071033
     87 H333         3.1740     1.7450     2.3280 hc         1 TG1       0.071033
     88 H281        -4.5140     1.4660     2.3340 hc         1 TG1       0.075200
     89 H282        -4.6900     3.1920     2.8260 hc         1 TG1       0.075200
     90 H291        -6.5170     3.4330     1.1230 hc         1 TG1       0.053200
     91 H292        -6.3170     1.7440     0.6590 hc         1 TG1       0.053200
     92 H301        -7.0020     1.0170     2.9710 hc         1 TG1       0.035033
     93 H302        -7.2030     2.7210     3.4420 hc         1 TG1       0.035033
     94 H303        -8.2570     2.0110     2.2000 hc         1 TG1       0.035033
     95 HO6         -1.4670     1.7280    -3.2800 ho         1 TG1       0.454000
     96 HO11        -5.8210     0.6950    -2.4190 ho         1 TG1       0.466000
@<TRIPOS>BOND
     1     1     2 1   
     2     1    47 1   
     3     1    48 1   
     4     1    49 1   
     5     2     3 1   
     6     2    32 1   
     7     2    46 1   
     8     3     4 1   
     9     3    30 1   
    10     3    45 1   
    11     4     5 1   
    12     4    39 1   
    13     4    50 1   
    14     5     6 1   
    15     5    51 1   
    16     5    52 1   
    17     6     7 1   
    18     6    34 1   
    19     6    35 1   
    20     7     8 1   
    21     7    29 1   
    22     7    53 1   
    23     8     9 1   
    24     8    19 1   
    25     8    54 1   
    26     9    10 1   
    27    10    11 2   
    28    10    12 1   
    29    12    13 1   
    30    12    55 1   
    31    12    56 1   
    32    13    14 1   
    33    13    57 1   
    34    13    58 1   
    35    14    15 1   
    36    14    59 1   
    37    14    60 1   
    38    15    16 1   
    39    15    61 1   
    40    15    62 1   
    41    16    17 1   
    42    16    63 1   
    43    16    64 1   
    44    17    18 1   
    45    17    65 1   
    46    17    66 1   
    47    18    67 1   
    48    18    68 1   
    49    18    69 1   
    50    19    20 1   
    51    19    27 1   
    52    19    70 1   
    53    20    21 1   
    54    21    22 2   
    55    21    23 1   
    56    23    24 1   
    57    23    25 2   
    58    24    71 1   
    59    24    72 1   
    60    24    73 1   
    61    25    26 1   
    62    25    74 1   
    63    26    75 1   
    64    26    76 1   
    65    26    77 1   
    66    27    28 1   
    67    27    29 2   
    68    28    78 1   
    69    28    79 1   
    70    28    80 1   
    71    29    30 1   
    72    30    31 1   
    73    30    81 1   
    74    31    32 1   
    75    32    33 2   
    76    34    82 1   
    77    34    83 1   
    78    34    84 1   
    79    35    36 1   
    80    36    37 2   
    81    36    38 1   
    82    38    85 1   
    83    38    86 1   
    84    38    87 1   
    85    39    40 1   
    86    40    41 2   
    87    40    42 1   
    88    42    43 1   
    89    42    88 1   
    90    42    89 1   
    91    43    44 1   
    92    43    90 1   
    93    43    91 1   
    94    44    92 1   
    95    44    93 1   
    96    44    94 1   
    97    45    95 1   
    98    46    96 1   
@<TRIPOS>SUBSTRUCTURE
     1 TG1         1 TEMP              0 ****  ****    0 ROOT
