@<TRIPOS>MOLECULE
TG2
   39    41     1     0     0
SMALL
abcg2


@<TRIPOS>ATOM
      1 C10        122.4840   106.4100   108.4500 c          1 TG2       0.615700
      2 C13        120.0780   107.9440   105.9590 ca         1 TG2      -0.121000
      3 C15        119.0240   107.8480   108.1170 ca         1 TG2      -0.121000
      4 C17        117.7340   108.7980   106.1900 cp         1 TG2      -0.021000
      5 C20        115.4130   109.9490   105.1080 ca         1 TG2      -0.118000
      6 C21        115.8080   110.2560   106.4070 ca         1 TG2      -0.115000
      7 C22        116.9540   109.6840   106.9430 ca         1 TG2      -0.099500
      8 C01        125.5830   106.7480   108.6530 c5         1 TG2      -0.096400
      9 C02        124.7220   105.6630   108.0190 c5         1 TG2       0.138300
     10 C03        125.5160   105.3060   106.7700 c5         1 TG2       0.149800
     11 C05        126.2230   107.4810   107.4420 c5         1 TG2       0.014500
     12 C06        125.5570   108.8540   107.1760 c          1 TG2       0.704000
     13 C11        121.2780   107.0290   107.8420 ca         1 TG2      -0.121600
     14 C12        121.2230   107.3730   106.4890 ca         1 TG2      -0.048000
     15 C14        118.9560   108.1910   106.7600 cp         1 TG2      -0.028000
     16 C16        120.1660   107.2750   108.6490 ca         1 TG2      -0.048000
     17 C18        117.3270   108.5000   104.8840 ca         1 TG2      -0.099500
     18 C19        116.1780   109.0680   104.3490 ca         1 TG2      -0.115000
     19 N04        126.1040   106.5640   106.2880 n7         1 TG2      -0.850400
     20 O07        124.9330   109.0060   106.0950 o          1 TG2      -0.729000
     21 O08        125.7040   109.7140   108.0800 o          1 TG2      -0.729000
     22 O09        123.4580   106.2160   107.5580 os         1 TG2      -0.429100
     23 O23        122.5750   106.1090   109.6250 o          1 TG2      -0.517000
     24 H1         120.0610   108.2200   104.9120 ha         1 TG2       0.111000
     25 H2         118.1660   108.0130   108.7550 ha         1 TG2       0.111000
     26 H3         114.5190   110.3930   104.6900 ha         1 TG2       0.104000
     27 H4         115.2240   110.9460   107.0020 ha         1 TG2       0.106000
     28 H5         117.2590   109.9440   107.9490 ha         1 TG2       0.116500
     29 H6         126.3480   106.2640   109.2620 hc         1 TG2       0.053700
     30 H7         125.0190   107.4170   109.2970 hc         1 TG2       0.053700
     31 H8         124.5150   104.8210   108.6760 h1         1 TG2       0.048700
     32 H9         124.9010   104.8380   106.0010 h1         1 TG2       0.037700
     33 H10        126.3000   104.5990   107.0560 h1         1 TG2       0.037700
     34 H11        127.2730   107.6870   107.6620 h1         1 TG2       0.055700
     35 H12        122.0810   107.2020   105.8550 ha         1 TG2       0.142500
     36 H13        120.2040   107.0060   109.6960 ha         1 TG2       0.142500
     37 H14        117.9030   107.8020   104.2900 ha         1 TG2       0.116500
     38 H15        115.8760   108.8160   103.3400 ha         1 TG2       0.106000
     39 H16        125.4520   107.0230   105.6560 hn         1 TG2       0.440000
@<TRIPOS>BOND
     1     1    13 1   
     2     1    22 1   
     3     1    23 2   
     4     2    14 ar  
     5     2    15 ar  
     6     2    24 1   
     7     3    15 ar  
     8     3    16 ar  
     9     3    25 1   
    10     4     7 ar  
    11     4    15 1   
    12     4    17 ar  
    13     5     6 ar  
    14     5    18 ar  
    15     5    26 1   
    16     6     7 ar  
    17     6    27 1   
    18     7    28 1   
    19     8     9 1   
    20     8    11 1   
    21     8    29 1   
    22     8    30 1   
    23     9    10 1   
    24     9    22 1   
    25     9    31 1   
    26    10    19 1   
    27    10    32 1   
    28    10    33 1   
    29    11    12 1   
    30    11    19 1   
    31    11    34 1   
    32    12    20 1   
    33    12    21 1   
    34    13    14 ar  
    35    13    16 ar  
    36    14    35 1   
    37    16    36 1   
    38    17    18 ar  
    39    17    37 1   
    40    18    38 1   
    41    19    39 1   
@<TRIPOS>SUBSTRUCTURE
     1 TG2         1 TEMP              0 ****  ****    0 ROOT
