@<TRIPOS>MOLECULE
TG2
   39    41     1     0     0
SMALL
No Charge or Current Charge


@<TRIPOS>ATOM
      1 C10        122.4920   106.4040   108.3860 c          1 TG2       0.615700
      2 C13        119.9840   107.9260   105.9040 ca         1 TG2      -0.121000
      3 C15        118.9580   107.8470   108.0960 ca         1 TG2      -0.121000
      4 C17        117.6110   108.7940   106.1610 cp         1 TG2      -0.021000
      5 C20        115.2430   109.9480   105.0940 ca         1 TG2      -0.118000
      6 C21        115.6510   110.2610   106.4000 ca         1 TG2      -0.115000
      7 C22        116.8220   109.6890   106.9280 ca         1 TG2      -0.099500
      8 C01        125.5580   106.7810   108.6450 c5         1 TG2      -0.096400
      9 C02        124.7290   105.6360   107.9820 c5         1 TG2       0.138300
     10 C03        125.6350   105.2760   106.7740 c5         1 TG2       0.149800
     11 C05        126.3940   107.3930   107.4640 c5         1 TG2       0.014500
     12 C06        126.1280   108.9560   107.3870 c          1 TG2       0.704000
     13 C11        121.2420   107.0210   107.7980 ca         1 TG2      -0.121600
     14 C12        121.1570   107.3550   106.4280 ca         1 TG2      -0.048000
     15 C14        118.8600   108.1850   106.7240 cp         1 TG2      -0.028000
     16 C16        120.1270   107.2750   108.6250 ca         1 TG2      -0.048000
     17 C18        117.1780   108.4940   104.8440 ca         1 TG2      -0.099500
     18 C19        116.0070   109.0640   104.3160 ca         1 TG2      -0.115000
     19 N04        126.0170   106.6010   106.2370 n7         1 TG2      -0.850400
     20 O07        125.1950   109.3730   106.7120 o          1 TG2      -0.729000
     21 O08        126.9170   109.7170   107.9320 o          1 TG2      -0.729000
     22 O09        123.4860   106.1870   107.4570 os         1 TG2      -0.429100
     23 O23        122.5880   106.1220   109.5760 o          1 TG2      -0.517000
     24 H1         119.9570   108.1840   104.8480 ha         1 TG2       0.111000
     25 H2         118.1130   108.0160   108.7580 ha         1 TG2       0.111000
     26 H3         114.3360   110.3900   104.6850 ha         1 TG2       0.104000
     27 H4         115.0620   110.9480   107.0040 ha         1 TG2       0.106000
     28 H5         117.1270   109.9560   107.9360 ha         1 TG2       0.116500
     29 H6         126.2260   106.3770   109.4140 hc         1 TG2       0.053700
     30 H7         124.9270   107.5240   109.1450 hc         1 TG2       0.053700
     31 H8         124.5310   104.7760   108.6370 h1         1 TG2       0.048700
     32 H9         125.1060   104.6690   106.0260 h1         1 TG2       0.037700
     33 H10        126.5230   104.7160   107.1010 h1         1 TG2       0.037700
     34 H11        127.4640   107.2570   107.6720 h1         1 TG2       0.055700
     35 H12        121.9970   107.1800   105.7590 ha         1 TG2       0.142500
     36 H13        120.1610   107.0260   109.6840 ha         1 TG2       0.142500
     37 H14        117.7470   107.8010   104.2290 ha         1 TG2       0.116500
     38 H15        115.6910   108.8180   103.3050 ha         1 TG2       0.106000
     39 H16        125.1520   107.0300   105.8770 hn         1 TG2       0.440000
@<TRIPOS>BOND
     1     1    13 1   
     2     1    22 1   
     3     1    23 2   
     4     2    14 ar  
     5     2    15 ar  
     6     2    24 1   
     7     3    15 ar  
     8     3    16 ar  
     9     3    25 1   
    10     4     7 ar  
    11     4    15 1   
    12     4    17 ar  
    13     5     6 ar  
    14     5    18 ar  
    15     5    26 1   
    16     6     7 ar  
    17     6    27 1   
    18     7    28 1   
    19     8     9 1   
    20     8    11 1   
    21     8    29 1   
    22     8    30 1   
    23     9    10 1   
    24     9    22 1   
    25     9    31 1   
    26    10    19 1   
    27    10    32 1   
    28    10    33 1   
    29    11    12 1   
    30    11    19 1   
    31    11    34 1   
    32    12    20 1   
    33    12    21 1   
    34    13    14 ar  
    35    13    16 ar  
    36    14    35 1   
    37    16    36 1   
    38    17    18 ar  
    39    17    37 1   
    40    18    38 1   
    41    19    39 1   
@<TRIPOS>SUBSTRUCTURE
     1 TG2         1 TEMP              0 ****  ****    0 ROOT
