@<TRIPOS>MOLECULE
TG3
   97    98     1     0     0
SMALL
bcc


@<TRIPOS>ATOM
      1 C01         15.6570    25.0500    -9.5450 c3         1 TG3      -0.097100
      2 C02         15.6860    25.6530    -8.1620 c3         1 TG3       0.144400
      3 O03         16.4210    26.8840    -8.2350 os         1 TG3      -0.430900
      4 C04         16.5660    27.5950    -7.1250 c          1 TG3       0.641100
      5 O05         16.0970    27.2710    -6.0610 o          1 TG3      -0.540000
      6 C06         17.3880    28.8320    -7.3680 c3         1 TG3      -0.137400
      7 C07         17.4120    29.7830    -6.1830 c3         1 TG3      -0.081400
      8 C08         18.3320    30.9790    -6.4170 c3         1 TG3       0.103700
      9 C09         18.3850    31.8850    -5.1850 c3         1 TG3      -0.072400
     10 C10         19.2930    33.0910    -5.3640 c5         1 TG3      -0.159700
     11 C11         20.7730    32.7900    -5.5970 c5         1 TG3      -0.092400
     12 C12         21.4840    34.0240    -5.0400 c5         1 TG3       0.100000
     13 N13         20.5670    34.4690    -4.0130 ns         1 TG3      -0.582900
     14 C14         19.3130    34.0050    -4.1500 c          1 TG3       0.707500
     15 O15         18.3620    34.2840    -3.4360 o          1 TG3      -0.633500
     16 N16         17.9180    31.7310    -7.5870 ns         1 TG3      -0.561900
     17 C17         18.6930    31.9650    -8.6540 c          1 TG3       0.653100
     18 O18         19.8280    31.5340    -8.7910 o          1 TG3      -0.616100
     19 C19         18.0370    32.7830    -9.7680 c3         1 TG3       0.038700
     20 C20         17.6420    31.8380   -10.9080 c3         1 TG3      -0.083400
     21 C21         16.5520    32.3570   -11.8480 c3         1 TG3      -0.060700
     22 C22         16.2460    31.2900   -12.8960 c3         1 TG3      -0.090600
     23 C23         16.8930    33.6810   -12.5250 c3         1 TG3      -0.090600
     24 N24         18.9660    33.7910   -10.2260 ns         1 TG3      -0.543900
     25 C25         19.3210    34.8220    -9.4510 c          1 TG3       0.662100
     26 O26         18.8300    35.0280    -8.3500 o          1 TG3      -0.620100
     27 C27         20.3890    35.7560   -10.0040 c3         1 TG3       0.038700
     28 N28         19.8910    37.1010    -9.8980 ns         1 TG3      -0.549900
     29 C29         20.1670    38.0420   -10.8240 c          1 TG3       0.762100
     30 O30         20.6450    37.8420   -11.9180 o          1 TG3      -0.576000
     31 O31         19.8100    39.2540   -10.3740 os         1 TG3      -0.437900
     32 C32         19.9210    40.3420   -11.2910 c3         1 TG3       0.208700
     33 C33         18.8540    40.3070   -12.3490 ca         1 TG3      -0.128300
     34 C34         19.1920    40.2590   -13.6970 ca         1 TG3      -0.098500
     35 C35         18.2030    40.2480   -14.6730 ca         1 TG3      -0.136000
     36 C36         16.8650    40.2700   -14.3060 ca         1 TG3      -0.118000
     37 C37         16.5190    40.3100   -12.9600 ca         1 TG3      -0.136000
     38 C38         17.5080    40.3330   -11.9890 ca         1 TG3      -0.098500
     39 C39         21.7060    35.5600    -9.2190 c3         1 TG3       0.138100
     40 C40         22.2930    34.1810    -9.4800 c3         1 TG3      -0.124100
     41 O41         22.5900    36.5690    -9.6330 os         1 TG3      -0.413600
     42 C42         23.3030    37.3250    -8.6500 c3         1 TG3       0.168800
     43 C43         24.2080    38.2390    -9.4670 c3         1 TG3      -0.107100
     44 C44         22.3610    38.1740    -7.7950 c3         1 TG3      -0.107100
     45 C45         24.1540    36.4240    -7.7560 c3         1 TG3      -0.107100
     46 H1          15.1010    24.1130    -9.5140 hc         1 TG3       0.046700
     47 H2          15.1620    25.7080   -10.2600 hc         1 TG3       0.046700
     48 H3          16.6600    24.8310    -9.9100 hc         1 TG3       0.046700
     49 H4          14.6730    25.8490    -7.8030 h1         1 TG3       0.048700
     50 H5          16.1690    24.9770    -7.4530 h1         1 TG3       0.048700
     51 H6          18.4050    28.5130    -7.6220 hc         1 TG3       0.075200
     52 H7          17.0040    29.3310    -8.2620 hc         1 TG3       0.075200
     53 H8          16.4000    30.1360    -5.9620 hc         1 TG3       0.062700
     54 H9          17.7620    29.2610    -5.2900 hc         1 TG3       0.062700
     55 H10         19.3360    30.6050    -6.6270 h1         1 TG3       0.080700
     56 H11         17.3740    32.2230    -4.9400 hc         1 TG3       0.061200
     57 H12         18.7300    31.2870    -4.3370 hc         1 TG3       0.061200
     58 H13         18.9160    33.7000    -6.1950 hc         1 TG3       0.098700
     59 H14         21.0160    32.6090    -6.6410 hc         1 TG3       0.062700
     60 H15         21.0690    31.9060    -5.0270 hc         1 TG3       0.062700
     61 H16         22.4650    33.7990    -4.6250 h1         1 TG3       0.041700
     62 H17         21.6150    34.7930    -5.8100 h1         1 TG3       0.041700
     63 H18         20.8050    35.1850    -3.3450 hn         1 TG3       0.325500
     64 H19         17.0100    32.1690    -7.5550 hn         1 TG3       0.318500
     65 H20         17.1370    33.2780    -9.3920 h1         1 TG3       0.075700
     66 H21         17.2760    30.9090   -10.4610 hc         1 TG3       0.056700
     67 H22         18.5380    31.5610   -11.4750 hc         1 TG3       0.056700
     68 H23         15.6500    32.5090   -11.2450 hc         1 TG3       0.045700
     69 H24         15.9880    30.3350   -12.4350 hc         1 TG3       0.037033
     70 H25         15.4100    31.5900   -13.5280 hc         1 TG3       0.037033
     71 H26         17.1100    31.1230   -13.5450 hc         1 TG3       0.037033
     72 H27         16.9800    34.5030   -11.8140 hc         1 TG3       0.037033
     73 H28         17.8330    33.6160   -13.0810 hc         1 TG3       0.037033
     74 H29         16.1130    33.9510   -13.2390 hc         1 TG3       0.037033
     75 H30         19.4440    33.6420   -11.1000 hn         1 TG3       0.333500
     76 H31         20.5770    35.5480   -11.0600 h1         1 TG3       0.097700
     77 H32         19.5480    37.3980    -8.9970 hn         1 TG3       0.336500
     78 H33         20.9140    40.3720   -11.7420 h1         1 TG3       0.064700
     79 H34         19.8130    41.2290   -10.6670 h1         1 TG3       0.064700
     80 H35         20.2350    40.2290   -13.9870 ha         1 TG3       0.135500
     81 H36         18.4790    40.2150   -15.7190 ha         1 TG3       0.130500
     82 H37         16.0930    40.2560   -15.0650 ha         1 TG3       0.129000
     83 H38         15.4760    40.3300   -12.6700 ha         1 TG3       0.130500
     84 H39         17.2290    40.3750   -10.9420 ha         1 TG3       0.135500
     85 H40         21.4680    35.6520    -8.1510 h1         1 TG3       0.047700
     86 H41         21.6000    33.3870    -9.2050 hc         1 TG3       0.050367
     87 H42         22.5340    34.0600   -10.5380 hc         1 TG3       0.050367
     88 H43         23.2060    34.0310    -8.9050 hc         1 TG3       0.050367
     89 H44         24.8040    38.8710    -8.8080 hc         1 TG3       0.042589
     90 H45         24.8940    37.6620   -10.0900 hc         1 TG3       0.042589
     91 H46         23.6210    38.8910   -10.1170 hc         1 TG3       0.042589
     92 H47         21.6680    37.5710    -7.2050 hc         1 TG3       0.042589
     93 H48         22.9400    38.7750    -7.0920 hc         1 TG3       0.042589
     94 H49         21.7760    38.8580    -8.4100 hc         1 TG3       0.042589
     95 H50         23.5470    35.7620    -7.1340 hc         1 TG3       0.042589
     96 H51         24.8340    35.8070    -8.3460 hc         1 TG3       0.042589
     97 H52         24.7560    37.0320    -7.0790 hc         1 TG3       0.042589
@<TRIPOS>BOND
     1     1     2 1   
     2     1    46 1   
     3     1    47 1   
     4     1    48 1   
     5     2     3 1   
     6     2    49 1   
     7     2    50 1   
     8     3     4 1   
     9     4     5 2   
    10     4     6 1   
    11     6     7 1   
    12     6    51 1   
    13     6    52 1   
    14     7     8 1   
    15     7    53 1   
    16     7    54 1   
    17     8     9 1   
    18     8    16 1   
    19     8    55 1   
    20     9    10 1   
    21     9    56 1   
    22     9    57 1   
    23    10    11 1   
    24    10    14 1   
    25    10    58 1   
    26    11    12 1   
    27    11    59 1   
    28    11    60 1   
    29    12    13 1   
    30    12    61 1   
    31    12    62 1   
    32    13    14 1   
    33    13    63 1   
    34    14    15 2   
    35    16    17 1   
    36    16    64 1   
    37    17    18 2   
    38    17    19 1   
    39    19    20 1   
    40    19    24 1   
    41    19    65 1   
    42    20    21 1   
    43    20    66 1   
    44    20    67 1   
    45    21    22 1   
    46    21    23 1   
    47    21    68 1   
    48    22    69 1   
    49    22    70 1   
    50    22    71 1   
    51    23    72 1   
    52    23    73 1   
    53    23    74 1   
    54    24    25 1   
    55    24    75 1   
    56    25    26 2   
    57    25    27 1   
    58    27    28 1   
    59    27    39 1   
    60    27    76 1   
    61    28    29 1   
    62    28    77 1   
    63    29    30 2   
    64    29    31 1   
    65    31    32 1   
    66    32    33 1   
    67    32    78 1   
    68    32    79 1   
    69    33    34 ar  
    70    33    38 ar  
    71    34    35 ar  
    72    34    80 1   
    73    35    36 ar  
    74    35    81 1   
    75    36    37 ar  
    76    36    82 1   
    77    37    38 ar  
    78    37    83 1   
    79    38    84 1   
    80    39    40 1   
    81    39    41 1   
    82    39    85 1   
    83    40    86 1   
    84    40    87 1   
    85    40    88 1   
    86    41    42 1   
    87    42    43 1   
    88    42    44 1   
    89    42    45 1   
    90    43    89 1   
    91    43    90 1   
    92    43    91 1   
    93    44    92 1   
    94    44    93 1   
    95    44    94 1   
    96    45    95 1   
    97    45    96 1   
    98    45    97 1   
@<TRIPOS>SUBSTRUCTURE
     1 TG3         1 TEMP              0 ****  ****    0 ROOT
