@<TRIPOS>MOLECULE
TG3
   97    98     1     0     0
SMALL
No Charge or Current Charge


@<TRIPOS>ATOM
      1 C01         13.8030    26.2370    -8.8040 c3         1 TG3      -0.097100
      2 C02         15.1950    25.8230    -8.3020 c3         1 TG3       0.167600
      3 O03         16.0320    26.9900    -8.3450 os         1 TG3      -0.454100
      4 C04         17.3350    26.8630    -7.9400 c          1 TG3       0.592100
      5 O05         17.8330    25.8270    -7.5200 o          1 TG3      -0.491000
      6 C06         18.0860    28.1930    -8.0200 c3         1 TG3      -0.137400
      7 C07         18.0410    28.9480    -6.6650 c3         1 TG3      -0.081400
      8 C08         18.8290    30.2790    -6.6630 c3         1 TG3       0.103700
      9 C09         18.8350    30.9630    -5.2720 c3         1 TG3      -0.072400
     10 C10         19.6400    32.2930    -5.1910 c5         1 TG3      -0.159700
     11 C11         21.1670    32.1650    -5.4520 c5         1 TG3      -0.092400
     12 C12         21.6930    33.4870    -4.8300 c5         1 TG3       0.100000
     13 N13         20.8010    33.6100    -3.6780 ns         1 TG3      -0.515900
     14 C14         19.6010    32.9670    -3.8140 c          1 TG3       0.565000
     15 O15         18.8190    32.8090    -2.8900 o          1 TG3      -0.558000
     16 N16         18.2970    31.1960    -7.6770 ns         1 TG3      -0.494900
     17 C17         19.0370    31.7670    -8.6910 c          1 TG3       0.586100
     18 O18         20.2090    31.4730    -8.8910 o          1 TG3      -0.616100
     19 C19         18.2770    32.8240    -9.5380 c3         1 TG3       0.038700
     20 C20         17.6380    32.1710   -10.7940 c3         1 TG3      -0.083400
     21 C21         16.4530    32.9450   -11.4420 c3         1 TG3      -0.060700
     22 C22         15.7700    32.0820   -12.5280 c3         1 TG3      -0.090600
     23 C23         16.8510    34.3240   -12.0210 c3         1 TG3      -0.090600
     24 N24         19.2220    33.9030    -9.9020 ns         1 TG3      -0.476900
     25 C25         19.1920    35.1820    -9.3830 c          1 TG3       0.595100
     26 O26         18.3030    35.5510    -8.6250 o          1 TG3      -0.620100
     27 C27         20.3520    36.1080    -9.8210 c3         1 TG3       0.038700
     28 N28         19.8220    37.4780   -10.0200 ns         1 TG3      -0.482900
     29 C29         20.1720    38.3150   -11.0410 c          1 TG3       0.646100
     30 O30         20.9400    38.0370   -11.9480 o          1 TG3      -0.527000
     31 O31         19.4950    39.4860   -10.8880 os         1 TG3      -0.461100
     32 C32         19.6120    40.4810   -11.9220 c3         1 TG3       0.231900
     33 C33         18.8170    40.0320   -13.1460 ca         1 TG3      -0.128300
     34 C34         19.4650    39.8070   -14.3780 ca         1 TG3      -0.080500
     35 C35         18.7290    39.3920   -15.5010 ca         1 TG3      -0.118000
     36 C36         17.3410    39.1990   -15.4010 ca         1 TG3      -0.100000
     37 C37         16.6890    39.4220   -14.1770 ca         1 TG3      -0.118000
     38 C38         17.4240    39.8370   -13.0530 ca         1 TG3      -0.080500
     39 C39         21.5020    36.0820    -8.7700 c3         1 TG3       0.161300
     40 C40         22.1290    34.6790    -8.5860 c3         1 TG3      -0.124100
     41 O41         22.5640    36.9660    -9.2470 os         1 TG3      -0.460000
     42 C42         23.1520    37.9390    -8.3420 c3         1 TG3       0.192000
     43 C43         24.2530    38.6340    -9.1730 c3         1 TG3      -0.107100
     44 C44         22.0730    38.9690    -7.9210 c3         1 TG3      -0.107100
     45 C45         23.7750    37.2260    -7.1150 c3         1 TG3      -0.107100
     46 H1          13.1230    25.3770    -8.7900 hc         1 TG3       0.046700
     47 H2          13.3790    27.0210    -8.1640 hc         1 TG3       0.046700
     48 H3          13.8590    26.6150    -9.8310 hc         1 TG3       0.046700
     49 H4          15.1150    25.4350    -7.2780 h1         1 TG3       0.048700
     50 H5          15.5950    25.0290    -8.9470 h1         1 TG3       0.048700
     51 H6          19.1310    28.0000    -8.2880 hc         1 TG3       0.075200
     52 H7          17.6040    28.8230    -8.7760 hc         1 TG3       0.075200
     53 H8          16.9950    29.1430    -6.3940 hc         1 TG3       0.062700
     54 H9          18.4510    28.2950    -5.8840 hc         1 TG3       0.062700
     55 H10         19.8710    30.0380    -6.9130 h1         1 TG3       0.080700
     56 H11         17.7950    31.1530    -4.9760 hc         1 TG3       0.061200
     57 H12         19.2330    30.2540    -4.5350 hc         1 TG3       0.061200
     58 H13         19.2350    33.0210    -5.9030 hc         1 TG3       0.098700
     59 H14         21.4250    32.0670    -6.5120 hc         1 TG3       0.062700
     60 H15         21.5890    31.2970    -4.9310 hc         1 TG3       0.062700
     61 H16         22.7510    33.4170    -4.5450 h1         1 TG3       0.041700
     62 H17         21.5720    34.3340    -5.5190 h1         1 TG3       0.041700
     63 H18         21.0250    34.0500    -2.7930 hn         1 TG3       0.325500
     64 H19         17.3330    31.4940    -7.5920 hn         1 TG3       0.318500
     65 H20         17.4770    33.2290    -8.9050 h1         1 TG3       0.075700
     66 H21         17.2600    31.1840   -10.4960 hc         1 TG3       0.056700
     67 H22         18.4150    31.9800   -11.5440 hc         1 TG3       0.056700
     68 H23         15.7040    33.1240   -10.6590 hc         1 TG3       0.045700
     69 H24         15.4260    31.1280   -12.1090 hc         1 TG3       0.037033
     70 H25         14.8960    32.5990   -12.9440 hc         1 TG3       0.037033
     71 H26         16.4640    31.8660   -13.3490 hc         1 TG3       0.037033
     72 H27         17.1220    35.0240   -11.2260 hc         1 TG3       0.037033
     73 H28         17.6990    34.2300   -12.7110 hc         1 TG3       0.037033
     74 H29         16.0130    34.7700   -12.5700 hc         1 TG3       0.037033
     75 H30         20.0040    33.6670   -10.5020 hn         1 TG3       0.333500
     76 H31         20.7360    35.7330   -10.7780 h1         1 TG3       0.097700
     77 H32         19.1450    37.8430    -9.3620 hn         1 TG3       0.336500
     78 H33         20.6640    40.6580   -12.1830 h1         1 TG3       0.064700
     79 H34         19.1990    41.4350   -11.5700 h1         1 TG3       0.064700
     80 H35         20.5410    39.9500   -14.4650 ha         1 TG3       0.117500
     81 H36         19.2350    39.2180   -16.4480 ha         1 TG3       0.112500
     82 H37         16.7710    38.8760   -16.2700 ha         1 TG3       0.111000
     83 H38         15.6140    39.2720   -14.0970 ha         1 TG3       0.112500
     84 H39         16.9130    40.0060   -12.1070 ha         1 TG3       0.117500
     85 H40         21.0760    36.3920    -7.7970 h1         1 TG3       0.047700
     86 H41         21.3990    33.9790    -8.1680 hc         1 TG3       0.050367
     87 H42         22.4800    34.2810    -9.5460 hc         1 TG3       0.050367
     88 H43         22.9790    34.7040    -7.8980 hc         1 TG3       0.050367
     89 H44         24.7600    39.4050    -8.5810 hc         1 TG3       0.042589
     90 H45         25.0060    37.9100    -9.5050 hc         1 TG3       0.042589
     91 H46         23.8250    39.1140   -10.0620 hc         1 TG3       0.042589
     92 H47         21.2900    38.5160    -7.3030 hc         1 TG3       0.042589
     93 H48         22.5270    39.7750    -7.3320 hc         1 TG3       0.042589
     94 H49         21.6030    39.4250    -8.7990 hc         1 TG3       0.042589
     95 H50         23.0090    36.7510    -6.4900 hc         1 TG3       0.042589
     96 H51         24.4960    36.4620    -7.4300 hc         1 TG3       0.042589
     97 H52         24.3090    37.9470    -6.4840 hc         1 TG3       0.042589
@<TRIPOS>BOND
     1     1     2 1   
     2     1    46 1   
     3     1    47 1   
     4     1    48 1   
     5     2     3 1   
     6     2    49 1   
     7     2    50 1   
     8     3     4 1   
     9     4     5 2   
    10     4     6 1   
    11     6     7 1   
    12     6    51 1   
    13     6    52 1   
    14     7     8 1   
    15     7    53 1   
    16     7    54 1   
    17     8     9 1   
    18     8    16 1   
    19     8    55 1   
    20     9    10 1   
    21     9    56 1   
    22     9    57 1   
    23    10    11 1   
    24    10    14 1   
    25    10    58 1   
    26    11    12 1   
    27    11    59 1   
    28    11    60 1   
    29    12    13 1   
    30    12    61 1   
    31    12    62 1   
    32    13    14 1   
    33    13    63 1   
    34    14    15 2   
    35    16    17 1   
    36    16    64 1   
    37    17    18 2   
    38    17    19 1   
    39    19    20 1   
    40    19    24 1   
    41    19    65 1   
    42    20    21 1   
    43    20    66 1   
    44    20    67 1   
    45    21    22 1   
    46    21    23 1   
    47    21    68 1   
    48    22    69 1   
    49    22    70 1   
    50    22    71 1   
    51    23    72 1   
    52    23    73 1   
    53    23    74 1   
    54    24    25 1   
    55    24    75 1   
    56    25    26 2   
    57    25    27 1   
    58    27    28 1   
    59    27    39 1   
    60    27    76 1   
    61    28    29 1   
    62    28    77 1   
    63    29    30 2   
    64    29    31 1   
    65    31    32 1   
    66    32    33 1   
    67    32    78 1   
    68    32    79 1   
    69    33    34 ar  
    70    33    38 ar  
    71    34    35 ar  
    72    34    80 1   
    73    35    36 ar  
    74    35    81 1   
    75    36    37 ar  
    76    36    82 1   
    77    37    38 ar  
    78    37    83 1   
    79    38    84 1   
    80    39    40 1   
    81    39    41 1   
    82    39    85 1   
    83    40    86 1   
    84    40    87 1   
    85    40    88 1   
    86    41    42 1   
    87    42    43 1   
    88    42    44 1   
    89    42    45 1   
    90    43    89 1   
    91    43    90 1   
    92    43    91 1   
    93    44    92 1   
    94    44    93 1   
    95    44    94 1   
    96    45    95 1   
    97    45    96 1   
    98    45    97 1   
@<TRIPOS>SUBSTRUCTURE
     1 TG3         1 TEMP              0 ****  ****    0 ROOT
