@<TRIPOS>MOLECULE
TG4
   44    44     1     0     0
SMALL
No Charge or Current Charge


@<TRIPOS>ATOM
      1 C01          2.8410     0.1690     0.2360 c          1 TG4       0.602100
      2 O02          2.5600    -0.4150    -0.8060 o          1 TG4      -0.601100
      3 N03          5.3930    -0.1580    -0.0270 n7         1 TG4      -0.851400
      4 C04          4.2870     0.6520     0.5810 c3         1 TG4       0.082800
      5 S05         -6.2670    -0.2990    -0.1930 sy         1 TG4       1.141600
      6 C06         -2.2330    -0.1760    -0.8650 ca         1 TG4      -0.127500
      7 C07         -1.7790     0.7610     0.0820 ca         1 TG4      -0.022300
      8 C08         -2.7060     1.3710     0.9480 ca         1 TG4      -0.127500
      9 C09         -4.0730     1.0520     0.8700 ca         1 TG4      -0.014000
     10 C10         -4.5250     0.1130    -0.0820 ca         1 TG4      -0.322500
     11 C11         -3.5980    -0.5000    -0.9500 ca         1 TG4      -0.014000
     12 C12         -0.2990     1.1030     0.1730 c3         1 TG4      -0.068100
     13 C13          0.4620     0.1170     1.0800 c3         1 TG4       0.103000
     14 N14          1.8870     0.4490     1.1940 ns         1 TG4      -0.504900
     15 O15         -6.4470    -1.6230    -0.7880 o          1 TG4      -0.528500
     16 O16         -6.9600     0.1310     1.0190 o          1 TG4      -0.528500
     17 N17         -6.7720     0.7590    -1.3320 n8         1 TG4      -0.995100
     18 C18          6.7520     0.3610     0.2010 c3         1 TG4       0.159800
     19 C19          7.7950    -0.5710    -0.4490 c3         1 TG4      -0.079400
     20 C20          9.2470    -0.0860    -0.2410 c3         1 TG4      -0.074400
     21 C21         10.2930    -1.0140    -0.8880 c3         1 TG4      -0.088100
     22 H1           5.2300    -0.2090    -1.0420 hn         1 TG4       0.432000
     23 H3           4.3530     1.6990     0.2560 h1         1 TG4       0.042700
     24 H4           4.3850     0.6510     1.6750 h1         1 TG4       0.042700
     25 H5          -1.5260    -0.6560    -1.5380 ha         1 TG4       0.121000
     26 H6          -2.3670     2.0930     1.6870 ha         1 TG4       0.121000
     27 H7          -4.7710     1.5360     1.5520 ha         1 TG4       0.136500
     28 H8          -3.9290    -1.2270    -1.6910 ha         1 TG4       0.136500
     29 H9           0.1480     1.0950    -0.8280 hc         1 TG4       0.057200
     30 H10         -0.1680     2.1200     0.5610 hc         1 TG4       0.057200
     31 H11          0.0180     0.1300     2.0850 h1         1 TG4       0.066200
     32 H12          0.3610    -0.9030     0.6840 h1         1 TG4       0.066200
     33 H13          2.2050     0.9310     2.0270 hn         1 TG4       0.311500
     34 H14         -7.5220     1.2320    -0.8340 hn         1 TG4       0.474500
     35 H15         -6.0150     1.4380    -1.3340 hn         1 TG4       0.474500
     36 H16          6.8540     1.3670    -0.2270 h1         1 TG4       0.025700
     37 H17          6.9570     0.4310     1.2780 h1         1 TG4       0.025700
     38 H18          7.6890    -1.5790    -0.0270 hc         1 TG4       0.048700
     39 H19          7.5920    -0.6480    -1.5240 hc         1 TG4       0.048700
     40 H20          9.3560     0.9220    -0.6610 hc         1 TG4       0.035200
     41 H21          9.4540    -0.0090     0.8340 hc         1 TG4       0.035200
     42 H22         10.2320    -2.0230    -0.4630 hc         1 TG4       0.033367
     43 H23         10.1340    -1.0830    -1.9710 hc         1 TG4       0.033367
     44 H24         11.3050    -0.6290    -0.7140 hc         1 TG4       0.033367
@<TRIPOS>BOND
     1     1     2 2   
     2     1     4 1   
     3     1    14 1   
     4     3     4 1   
     5     3    18 1   
     6     3    22 1   
     7     4    23 1   
     8     4    24 1   
     9     5    10 1   
    10     5    15 2   
    11     5    16 2   
    12     5    17 1   
    13     6     7 ar  
    14     6    11 ar  
    15     6    25 1   
    16     7     8 ar  
    17     7    12 1   
    18     8     9 ar  
    19     8    26 1   
    20     9    10 ar  
    21     9    27 1   
    22    10    11 ar  
    23    11    28 1   
    24    12    13 1   
    25    12    29 1   
    26    12    30 1   
    27    13    14 1   
    28    13    31 1   
    29    13    32 1   
    30    14    33 1   
    31    17    34 1   
    32    17    35 1   
    33    18    19 1   
    34    18    36 1   
    35    18    37 1   
    36    19    20 1   
    37    19    38 1   
    38    19    39 1   
    39    20    21 1   
    40    20    40 1   
    41    20    41 1   
    42    21    42 1   
    43    21    43 1   
    44    21    44 1   
@<TRIPOS>SUBSTRUCTURE
     1 TG4         1 TEMP              0 ****  ****    0 ROOT
