@<TRIPOS>MOLECULE
TG4
   44    44     1     0     0
SMALL
abcg2


@<TRIPOS>ATOM
      1 C01          2.8910     0.0870    -0.0900 c          1 TG4       0.602100
      2 O02          2.6920    -0.6510    -1.0460 o          1 TG4      -0.601100
      3 N03          5.3090    -0.2210    -0.0890 n7         1 TG4      -0.851400
      4 C04          4.2450     0.7290     0.1410 c3         1 TG4       0.082800
      5 S05         -6.1410    -0.3420    -0.1070 sy         1 TG4       1.141600
      6 C06         -2.3180     0.3320    -1.1690 ca         1 TG4      -0.127500
      7 C07         -1.7360     0.7940     0.0080 ca         1 TG4      -0.022300
      8 C08         -2.5220     0.8720     1.1580 ca         1 TG4      -0.127500
      9 C09         -3.8580     0.5090     1.1350 ca         1 TG4      -0.014000
     10 C10         -4.4180     0.0640    -0.0560 ca         1 TG4      -0.322500
     11 C11         -3.6550    -0.0310    -1.2120 ca         1 TG4      -0.014000
     12 C12         -0.2830     1.1660     0.0590 c3         1 TG4      -0.068100
     13 C13          0.5560     0.0460     0.6850 c3         1 TG4       0.103000
     14 N14          1.9460     0.4130     0.8050 ns         1 TG4      -0.504900
     15 O15         -6.3680    -1.1990    -1.2590 o          1 TG4      -0.528500
     16 O16         -6.5390    -0.7800     1.2200 o          1 TG4      -0.528500
     17 N17         -6.9680     1.0500    -0.3970 n8         1 TG4      -0.995100
     18 C18          6.6200     0.3990    -0.0480 c3         1 TG4       0.159800
     19 C19          7.7300    -0.6320    -0.1720 c3         1 TG4      -0.079400
     20 C20          9.1180    -0.0020    -0.1520 c3         1 TG4      -0.074400
     21 C21         10.2340    -1.0350    -0.2090 c3         1 TG4      -0.088100
     22 H1           5.1740    -0.6480    -0.9970 hn         1 TG4       0.432000
     23 H3           4.2910     1.6090    -0.5240 h1         1 TG4       0.042700
     24 H4           4.3240     1.1160     1.1610 h1         1 TG4       0.042700
     25 H5          -1.7200     0.2590    -2.0690 ha         1 TG4       0.121000
     26 H6          -2.0870     1.2250     2.0850 ha         1 TG4       0.121000
     27 H7          -4.4480     0.5740     2.0390 ha         1 TG4       0.136500
     28 H8          -4.0870    -0.3830    -2.1390 ha         1 TG4       0.136500
     29 H9           0.0890     1.3760    -0.9460 hc         1 TG4       0.057200
     30 H10         -0.1560     2.0770     0.6490 hc         1 TG4       0.057200
     31 H11          0.1750    -0.1920     1.6800 h1         1 TG4       0.066200
     32 H12          0.4830    -0.8600     0.0860 h1         1 TG4       0.066200
     33 H13          2.1930     1.0390     1.5560 hn         1 TG4       0.311500
     34 H14         -6.8890     1.7340     0.3470 hn         1 TG4       0.474500
     35 H15         -6.7640     1.4650    -1.3000 hn         1 TG4       0.474500
     36 H16          6.7440     1.1710    -0.8250 h1         1 TG4       0.025700
     37 H17          6.7220     0.9170     0.9110 h1         1 TG4       0.025700
     38 H18          7.6390    -1.3540     0.6460 hc         1 TG4       0.048700
     39 H19          7.6040    -1.2000    -1.1010 hc         1 TG4       0.048700
     40 H20          9.2140     0.6910    -0.9940 hc         1 TG4       0.035200
     41 H21          9.2260     0.6050     0.7520 hc         1 TG4       0.035200
     42 H22         10.1860    -1.7120     0.6450 hc         1 TG4       0.033367
     43 H23         10.1660    -1.6400    -1.1150 hc         1 TG4       0.033367
     44 H24         11.2170    -0.5620    -0.2020 hc         1 TG4       0.033367
@<TRIPOS>BOND
     1     1     2 2   
     2     1     4 1   
     3     1    14 1   
     4     3     4 1   
     5     3    18 1   
     6     3    22 1   
     7     4    23 1   
     8     4    24 1   
     9     5    10 1   
    10     5    15 2   
    11     5    16 2   
    12     5    17 1   
    13     6     7 ar  
    14     6    11 ar  
    15     6    25 1   
    16     7     8 ar  
    17     7    12 1   
    18     8     9 ar  
    19     8    26 1   
    20     9    10 ar  
    21     9    27 1   
    22    10    11 ar  
    23    11    28 1   
    24    12    13 1   
    25    12    29 1   
    26    12    30 1   
    27    13    14 1   
    28    13    31 1   
    29    13    32 1   
    30    14    33 1   
    31    17    34 1   
    32    17    35 1   
    33    18    19 1   
    34    18    36 1   
    35    18    37 1   
    36    19    20 1   
    37    19    38 1   
    38    19    39 1   
    39    20    21 1   
    40    20    40 1   
    41    20    41 1   
    42    21    42 1   
    43    21    43 1   
    44    21    44 1   
@<TRIPOS>SUBSTRUCTURE
     1 TG4         1 TEMP              0 ****  ****    0 ROOT
