@<TRIPOS>MOLECULE
TG5
   38    38     1     0     0
SMALL
abcg2


@<TRIPOS>ATOM
      1 C01         -1.5860    -1.5690    -0.0860 ca         1 TG5      -0.178500
      2 C02         -0.7130    -0.4740    -0.0140 ca         1 TG5       0.042000
      3 C03         -1.2480     0.8150     0.0490 ca         1 TG5      -0.178500
      4 C04         -2.6220     0.9940     0.0320 ca         1 TG5       0.016500
      5 C05         -3.4710    -0.0970    -0.0490 ca         1 TG5      -0.355500
      6 C06         -2.9500    -1.3860    -0.0980 ca         1 TG5       0.016500
      7 N07          0.6450    -0.7620    -0.0070 ns         1 TG5      -0.156000
      8 C08          1.7120     0.0880     0.0110 c          1 TG5       0.603100
      9 O09          1.6190     1.2970     0.0460 o          1 TG5      -0.538100
     10 N10          4.1510     0.2490     0.1390 n7         1 TG5      -0.845400
     11 C11          3.0400    -0.6480    -0.0220 c3         1 TG5       0.084800
     12 S12         -5.2250     0.1230    -0.0350 sy         1 TG5       1.153600
     13 O13         -5.7850    -0.8130     0.9270 o          1 TG5      -0.532500
     14 O14         -5.4940     1.5450     0.0930 o          1 TG5      -0.532500
     15 N15         -5.8000    -0.3410    -1.5020 n8         1 TG5      -1.006100
     16 C16          5.4340    -0.4140    -0.0150 c3         1 TG5       0.161800
     17 C17          6.5790     0.5840     0.0320 c3         1 TG5      -0.079400
     18 C18          7.9450    -0.0840    -0.0710 c3         1 TG5      -0.075400
     19 C19          9.0900     0.9190    -0.0450 c3         1 TG5      -0.088100
     20 H1          -1.1850    -2.5740    -0.1310 ha         1 TG5       0.134500
     21 H2          -0.6090     1.6790     0.1140 ha         1 TG5       0.134500
     22 H3          -3.0170     2.0000     0.0830 ha         1 TG5       0.133000
     23 H4          -3.5970    -2.2530    -0.1480 ha         1 TG5       0.133000
     24 H5           0.8670    -1.7460    -0.0470 hn         1 TG5       0.151000
     25 H6           4.1110     0.6810     1.0540 hn         1 TG5       0.425000
     26 H8           3.0050    -1.4670     0.7150 h1         1 TG5       0.046200
     27 H9           3.1180    -1.1360    -1.0000 h1         1 TG5       0.046200
     28 H10         -5.7950    -1.3420    -1.6550 hn         1 TG5       0.477000
     29 H11         -5.3970     0.1600    -2.2860 hn         1 TG5       0.477000
     30 H12          5.5980    -1.1960     0.7450 h1         1 TG5       0.027200
     31 H13          5.4390    -0.9250    -0.9830 h1         1 TG5       0.027200
     32 H14          6.4590     1.3070    -0.7810 hc         1 TG5       0.050200
     33 H15          6.5270     1.1570     0.9650 hc         1 TG5       0.050200
     34 H16          8.0630    -0.7980     0.7510 hc         1 TG5       0.035700
     35 H17          7.9920    -0.6720    -0.9930 hc         1 TG5       0.035700
     36 H18          9.0230     1.6120    -0.8860 hc         1 TG5       0.034033
     37 H19          9.0730     1.5100     0.8720 hc         1 TG5       0.034033
     38 H20         10.0590     0.4220    -0.0990 hc         1 TG5       0.034033
@<TRIPOS>BOND
     1     1     2 ar  
     2     1     6 ar  
     3     1    20 1   
     4     2     3 ar  
     5     2     7 1   
     6     3     4 ar  
     7     3    21 1   
     8     4     5 ar  
     9     4    22 1   
    10     5     6 ar  
    11     5    12 1   
    12     6    23 1   
    13     7     8 1   
    14     7    24 1   
    15     8     9 2   
    16     8    11 1   
    17    10    11 1   
    18    10    16 1   
    19    10    25 1   
    20    11    26 1   
    21    11    27 1   
    22    12    13 2   
    23    12    14 2   
    24    12    15 1   
    25    15    28 1   
    26    15    29 1   
    27    16    17 1   
    28    16    30 1   
    29    16    31 1   
    30    17    18 1   
    31    17    32 1   
    32    17    33 1   
    33    18    19 1   
    34    18    34 1   
    35    18    35 1   
    36    19    36 1   
    37    19    37 1   
    38    19    38 1   
@<TRIPOS>SUBSTRUCTURE
     1 TG5         1 TEMP              0 ****  ****    0 ROOT
