@<TRIPOS>MOLECULE
TG5
   38    38     1     0     0
SMALL
No Charge or Current Charge


@<TRIPOS>ATOM
      1 C01         -1.6360    -1.6370    -0.1950 ca         1 TG5      -0.178500
      2 C02         -0.8090    -0.5340     0.0840 ca         1 TG5       0.042000
      3 C03         -1.4060     0.7320     0.2700 ca         1 TG5      -0.178500
      4 C04         -2.8010     0.8860     0.1810 ca         1 TG5       0.016500
      5 C05         -3.6170    -0.2270    -0.0970 ca         1 TG5      -0.355500
      6 C06         -3.0300    -1.4930    -0.2860 ca         1 TG5       0.016500
      7 N07          0.5910    -0.7660     0.1570 ns         1 TG5      -0.156000
      8 C08          1.6640     0.0620     0.4650 c          1 TG5       0.603100
      9 O09          1.5570     1.2480     0.7680 o          1 TG5      -0.538100
     10 N10          4.2270     0.2310     0.1420 n7         1 TG5      -0.845400
     11 C11          3.0480    -0.6600     0.4050 c3         1 TG5       0.084800
     12 S12         -5.3920    -0.0270    -0.2100 sy         1 TG5       1.153600
     13 O13         -6.0500    -1.3280    -0.1170 o          1 TG5      -0.532500
     14 O14         -5.8300     1.1460     0.5460 o          1 TG5      -0.532500
     15 N15         -5.5580     0.3850    -1.7810 n8         1 TG5      -1.006100
     16 C16          5.5400    -0.4360     0.1720 c3         1 TG5       0.161800
     17 C17          6.6590     0.5760    -0.1450 c3         1 TG5      -0.079400
     18 C18          8.0660    -0.0610    -0.1370 c3         1 TG5      -0.075400
     19 C19          9.1880     0.9460    -0.4530 c3         1 TG5      -0.088100
     20 H1          -1.1960    -2.6210    -0.3430 ha         1 TG5       0.134500
     21 H2          -0.8110     1.6140     0.4800 ha         1 TG5       0.134500
     22 H3          -3.2390     1.8730     0.3260 ha         1 TG5       0.133000
     23 H4          -3.6440    -2.3680    -0.5000 ha         1 TG5       0.133000
     24 H5           0.8550    -1.7180    -0.0580 hn         1 TG5       0.151000
     25 H6           4.2290     0.9830     0.8460 hn         1 TG5       0.425000
     26 H8           3.1690    -1.1860     1.3610 h1         1 TG5       0.046200
     27 H9           2.9840    -1.4300    -0.3770 h1         1 TG5       0.046200
     28 H10         -6.2040    -0.3340    -2.0960 hn         1 TG5       0.477000
     29 H11         -4.6620     0.0940    -2.1630 hn         1 TG5       0.477000
     30 H12          5.7230    -0.8760     1.1620 h1         1 TG5       0.027200
     31 H13          5.5710    -1.2480    -0.5680 h1         1 TG5       0.027200
     32 H14          6.4720     1.0220    -1.1300 hc         1 TG5       0.050200
     33 H15          6.6290     1.3900     0.5900 hc         1 TG5       0.050200
     34 H16          8.2560    -0.5090     0.8470 hc         1 TG5       0.035700
     35 H17          8.1000    -0.8760    -0.8710 hc         1 TG5       0.035700
     36 H18          9.0450     1.3870    -1.4480 hc         1 TG5       0.034033
     37 H19          9.2030     1.7560     0.2860 hc         1 TG5       0.034033
     38 H20         10.1650     0.4490    -0.4360 hc         1 TG5       0.034033
@<TRIPOS>BOND
     1     1     2 ar  
     2     1     6 ar  
     3     1    20 1   
     4     2     3 ar  
     5     2     7 1   
     6     3     4 ar  
     7     3    21 1   
     8     4     5 ar  
     9     4    22 1   
    10     5     6 ar  
    11     5    12 1   
    12     6    23 1   
    13     7     8 1   
    14     7    24 1   
    15     8     9 2   
    16     8    11 1   
    17    10    11 1   
    18    10    16 1   
    19    10    25 1   
    20    11    26 1   
    21    11    27 1   
    22    12    13 2   
    23    12    14 2   
    24    12    15 1   
    25    15    28 1   
    26    15    29 1   
    27    16    17 1   
    28    16    30 1   
    29    16    31 1   
    30    17    18 1   
    31    17    32 1   
    32    17    33 1   
    33    18    19 1   
    34    18    34 1   
    35    18    35 1   
    36    19    36 1   
    37    19    37 1   
    38    19    38 1   
@<TRIPOS>SUBSTRUCTURE
     1 TG5         1 TEMP              0 ****  ****    0 ROOT
