@<TRIPOS>MOLECULE
TG7
   41    44     1     0     0
SMALL
No Charge or Current Charge


@<TRIPOS>ATOM
      1 C10          5.1060   -17.7580   -30.7650 cc         1 TG7       0.099400
      2 C13          5.9790   -15.0990   -28.1940 ca         1 TG7      -0.127500
      3 C15          3.9880   -16.2820   -27.4610 ca         1 TG7      -0.127500
      4 C20          4.7280   -20.9050   -33.8970 cc         1 TG7      -0.109000
      5 C21          5.0500   -19.7560   -34.7090 cc         1 TG7      -0.186000
      6 C22          5.3090   -18.4940   -34.1820 cd         1 TG7      -0.058000
      7 C24          6.4890   -14.1760   -33.8450 ca         1 TG7      -0.176000
      8 C04          8.4370   -14.4220   -35.2990 ca         1 TG7      -0.122600
      9 C05          8.5810   -15.7490   -34.8430 ca         1 TG7      -0.089000
     10 C06          7.6830   -16.2830   -33.9050 ca         1 TG7      -0.221000
     11 C07          6.6240   -15.5040   -33.4160 ca         1 TG7       0.223000
     12 C09          5.4470   -17.2950   -32.0270 cd         1 TG7       0.108900
     13 C11          5.0410   -16.8800   -29.5890 ca         1 TG7      -0.000800
     14 C12          6.0280   -15.8980   -29.3500 ca         1 TG7      -0.086000
     15 C14          4.9550   -15.2860   -27.2520 ca         1 TG7      -0.127000
     16 C16          4.0380   -17.0820   -28.6160 ca         1 TG7      -0.086000
     17 C18          4.9020   -19.4950   -31.9950 cd         1 TG7      -0.090000
     18 C19          4.6200   -20.7880   -32.5280 cd         1 TG7      -0.096000
     19 C25          7.3860   -13.6180   -34.7850 ca         1 TG7      -0.051600
     20 N08          5.7280   -16.0070   -32.4730 nu         1 TG7      -0.870000
     21 N17          4.7750   -19.0980   -30.7400 nc         1 TG7      -0.312600
     22 N23          5.3390   -18.4510   -32.7810 na         1 TG7       0.109100
     23 O01          8.9250   -13.4570   -37.3860 o          1 TG7      -0.731000
     24 O03         10.5930   -14.0190   -36.1440 o          1 TG7      -0.731000
     25 O27          6.1310   -11.7970   -35.6030 o          1 TG7      -0.734500
     26 O28          8.1610   -11.4010   -35.0000 o          1 TG7      -0.734500
     27 H1           6.7400   -14.3410   -28.0260 ha         1 TG7       0.103000
     28 H2           3.2020   -16.4390   -26.7250 ha         1 TG7       0.103000
     29 H3           4.5270   -21.8530   -34.3850 ha         1 TG7       0.102000
     30 H4           5.0660   -19.8920   -35.7870 ha         1 TG7       0.122000
     31 H5           5.5130   -17.5930   -34.7450 h4         1 TG7       0.176000
     32 H6           5.6850   -13.5620   -33.4490 ha         1 TG7       0.090000
     33 H7           9.3890   -16.3690   -35.2260 ha         1 TG7       0.105000
     34 H8           7.8230   -17.3030   -33.5580 ha         1 TG7       0.074000
     35 H9           6.8460   -15.7610   -30.0540 ha         1 TG7       0.139000
     36 H10          4.9180   -14.6690   -26.3570 ha         1 TG7       0.093000
     37 H11          3.2860   -17.8540   -28.7640 ha         1 TG7       0.139000
     38 H12          4.3120   -21.6190   -31.9010 ha         1 TG7       0.121000
     39 H13          5.2580   -15.2800   -31.9300 hn         1 TG7       0.490000
     40 C02          9.3920   -13.8880   -36.3400 c          1 TG7       0.721600
     41 C26          7.2270   -12.1680   -35.2000 c          1 TG7       0.749600
@<TRIPOS>BOND
     1     1    12 2   
     2     1    13 1   
     3     1    21 1   
     4     2    14 ar  
     5     2    15 ar  
     6     2    27 1   
     7     3    15 ar  
     8     3    16 ar  
     9     3    28 1   
    10     4     5 1   
    11     4    18 2   
    12     4    29 1   
    13     5     6 2   
    14     5    30 1   
    15     6    22 1   
    16     6    31 1   
    17     7    11 ar  
    18     7    19 ar  
    19     7    32 1   
    20     8     9 ar  
    21     8    19 ar  
    22     8    40 1   
    23     9    10 ar  
    24     9    33 1   
    25    10    11 ar  
    26    10    34 1   
    27    11    20 1   
    28    12    20 1   
    29    12    22 1   
    30    13    14 ar  
    31    13    16 ar  
    32    14    35 1   
    33    15    36 1   
    34    16    37 1   
    35    17    18 1   
    36    17    21 2   
    37    17    22 1   
    38    18    38 1   
    39    19    41 1   
    40    20    39 1   
    41    23    40 1   
    42    24    40 1   
    43    25    41 1   
    44    26    41 1   
@<TRIPOS>SUBSTRUCTURE
     1 TG7         1 TEMP              0 ****  ****    0 ROOT
