@<TRIPOS>MOLECULE
TG7
   41    44     1     0     0
SMALL
abcg2


@<TRIPOS>ATOM
      1 C10          5.0860   -17.6290   -30.9360 cc         1 TG7       0.099400
      2 C13          5.9300   -14.7960   -28.5940 ca         1 TG7      -0.127500
      3 C15          4.8310   -16.5340   -27.3570 ca         1 TG7      -0.127500
      4 C20          4.5870   -20.8990   -33.9500 cc         1 TG7      -0.109000
      5 C21          4.6730   -19.7910   -34.8330 cc         1 TG7      -0.186000
      6 C22          4.8320   -18.5370   -34.3410 cd         1 TG7      -0.058000
      7 C24          6.2470   -14.2740   -34.1540 ca         1 TG7      -0.176000
      8 C04          8.5800   -14.4360   -34.7530 ca         1 TG7      -0.122600
      9 C05          8.6210   -15.6380   -34.0500 ca         1 TG7      -0.089000
     10 C06          7.5120   -16.1730   -33.4130 ca         1 TG7      -0.221000
     11 C07          6.3000   -15.4850   -33.4640 ca         1 TG7       0.223000
     12 C09          5.0750   -17.2100   -32.2520 cd         1 TG7       0.108900
     13 C11          5.2160   -16.8070   -29.7300 ca         1 TG7      -0.000800
     14 C12          5.8260   -15.5510   -29.7530 ca         1 TG7      -0.086000
     15 C14          5.4300   -15.2810   -27.3920 ca         1 TG7      -0.127000
     16 C16          4.7260   -17.2900   -28.5140 ca         1 TG7      -0.086000
     17 C18          4.8250   -19.4090   -32.0950 cd         1 TG7      -0.090000
     18 C19          4.6600   -20.7150   -32.6010 cd         1 TG7      -0.096000
     19 C25          7.3640   -13.7380   -34.7860 ca         1 TG7      -0.051600
     20 N08          5.1570   -15.9690   -32.8440 nu         1 TG7      -0.870000
     21 N17          4.9230   -18.9740   -30.8530 nc         1 TG7      -0.312600
     22 N23          4.9080   -18.3640   -32.9920 na         1 TG7       0.109100
     23 O01          9.6310   -13.3290   -36.5530 o          1 TG7      -0.731000
     24 O03         10.9210   -14.3560   -35.0530 o          1 TG7      -0.731000
     25 O27          6.3860   -12.2820   -36.3590 o          1 TG7      -0.734500
     26 O28          7.7990   -11.4310   -34.8490 o          1 TG7      -0.734500
     27 H1           6.4090   -13.8260   -28.6300 ha         1 TG7       0.103000
     28 H2           4.4400   -16.9230   -26.4260 ha         1 TG7       0.103000
     29 H3           4.4600   -21.8930   -34.3560 ha         1 TG7       0.102000
     30 H4           4.6120   -19.9330   -35.9020 ha         1 TG7       0.122000
     31 H5           4.8990   -17.6490   -34.9520 h4         1 TG7       0.176000
     32 H6           5.3050   -13.7360   -34.1870 ha         1 TG7       0.090000
     33 H7           9.5540   -16.1860   -34.0080 ha         1 TG7       0.105000
     34 H8           7.5920   -17.1140   -32.8830 ha         1 TG7       0.074000
     35 H9           6.2360   -15.1610   -30.6740 ha         1 TG7       0.139000
     36 H10          5.5120   -14.6900   -26.4890 ha         1 TG7       0.093000
     37 H11          4.2550   -18.2640   -28.4800 ha         1 TG7       0.139000
     38 H12          4.5940   -21.5390   -31.9040 ha         1 TG7       0.121000
     39 H13          4.3080   -15.4330   -32.9490 hn         1 TG7       0.490000
     40 C02          9.8190   -13.9890   -35.5120 c          1 TG7       0.721600
     41 C26          7.1880   -12.3590   -35.4100 c          1 TG7       0.749600
@<TRIPOS>BOND
     1     1    12 2   
     2     1    13 1   
     3     1    21 1   
     4     2    14 ar  
     5     2    15 ar  
     6     2    27 1   
     7     3    15 ar  
     8     3    16 ar  
     9     3    28 1   
    10     4     5 1   
    11     4    18 2   
    12     4    29 1   
    13     5     6 2   
    14     5    30 1   
    15     6    22 1   
    16     6    31 1   
    17     7    11 ar  
    18     7    19 ar  
    19     7    32 1   
    20     8     9 ar  
    21     8    19 ar  
    22     8    40 1   
    23     9    10 ar  
    24     9    33 1   
    25    10    11 ar  
    26    10    34 1   
    27    11    20 1   
    28    12    20 1   
    29    12    22 1   
    30    13    14 ar  
    31    13    16 ar  
    32    14    35 1   
    33    15    36 1   
    34    16    37 1   
    35    17    18 1   
    36    17    21 2   
    37    17    22 1   
    38    18    38 1   
    39    19    41 1   
    40    20    39 1   
    41    23    40 1   
    42    24    40 1   
    43    25    41 1   
    44    26    41 1   
@<TRIPOS>SUBSTRUCTURE
     1 TG7         1 TEMP              0 ****  ****    0 ROOT
