@<TRIPOS>MOLECULE
TG9
   42    44     1     0     0
SMALL
abcg2


@<TRIPOS>ATOM
      1 C           20.5260    16.3600    -6.9430 ce         1 TG9       0.690800
      2 N           20.6670    15.6220    -5.7850 nv         1 TG9      -1.077200
      3 C1          20.1220    17.7530    -6.7590 cc         1 TG9      -0.302900
      4 C10         19.2990    19.9540    -5.8740 cc         1 TG9       0.245000
      5 C11         18.0040    20.7140    -3.8940 c6         1 TG9       0.222500
      6 C12         17.9530    21.9930    -3.0520 c6         1 TG9      -0.092900
      7 C13         17.1000    23.0880    -3.7000 c6         1 TG9      -0.077400
      8 C14         15.6920    22.5790    -4.0190 c6         1 TG9      -0.077400
      9 C15         15.7390    21.3160    -4.8810 c6         1 TG9      -0.077400
     10 C16         16.5840    20.2230    -4.2240 c6         1 TG9      -0.092900
     11 C2          20.2020    18.7740    -7.6630 cd         1 TG9      -0.009000
     12 C3          19.7490    20.0350    -7.1920 cd         1 TG9      -0.189000
     13 C4          19.7390    21.2540    -8.0160 ca         1 TG9       0.009000
     14 C5          19.4170    21.1760    -9.3800 ca         1 TG9      -0.116500
     15 C6          19.4140    22.3090   -10.1810 ca         1 TG9      -0.107500
     16 C7          19.7260    23.5550    -9.6410 ca         1 TG9      -0.118000
     17 C8          20.0520    23.6480    -8.2920 ca         1 TG9      -0.107500
     18 C9          20.0640    22.5120    -7.4900 ca         1 TG9      -0.116500
     19 N1          18.8080    20.9560    -5.0960 nu         1 TG9      -0.927200
     20 N2          20.6740    15.8900    -8.1360 n2         1 TG9      -0.825100
     21 S           19.4380    18.3320    -5.2550 ss         1 TG9       0.136000
     22 H           20.9730    16.1040    -4.9530 hn         1 TG9       0.457500
     23 H9          18.5260    19.9450    -3.3200 h1         1 TG9       0.061700
     24 H11         18.9690    22.3480    -2.8700 hc         1 TG9       0.053200
     25 H10         17.5200    21.7330    -2.0820 hc         1 TG9       0.053200
     26 H12         17.5750    23.4420    -4.6210 hc         1 TG9       0.043450
     27 H13         17.0510    23.9520    -3.0330 hc         1 TG9       0.043450
     28 H15         15.1140    23.3590    -4.5210 hc         1 TG9       0.042200
     29 H14         15.1720    22.3540    -3.0800 hc         1 TG9       0.042200
     30 H16         14.7290    20.9400    -5.0610 hc         1 TG9       0.043450
     31 H17         16.1570    21.5610    -5.8630 hc         1 TG9       0.043450
     32 H18         16.1130    19.9070    -3.2880 hc         1 TG9       0.053200
     33 H19         16.6400    19.3410    -4.8660 hc         1 TG9       0.053200
     34 H2          20.6090    18.6280    -8.6530 ha         1 TG9       0.151000
     35 H3          19.1570    20.2170    -9.8090 ha         1 TG9       0.116000
     36 H4          19.1590    22.2220   -11.2300 ha         1 TG9       0.110500
     37 H5          19.7170    24.4390   -10.2650 ha         1 TG9       0.112000
     38 H6          20.3100    24.6080    -7.8610 ha         1 TG9       0.110500
     39 H7          20.3600    22.6040    -6.4540 ha         1 TG9       0.116000
     40 H8          18.5820    21.7980    -5.6050 hn         1 TG9       0.483000
     41 H20         21.0190    14.9310    -8.1010 hn         1 TG9       0.366400
     42 H1          21.0660    14.7000    -5.8880 hn         1 TG9       0.457500
@<TRIPOS>BOND
     1     1     2 1   
     2     1     3 1   
     3     1    20 2   
     4     2    22 1   
     5     2    42 1   
     6     3    11 2   
     7     3    21 1   
     8     4    12 2   
     9     4    19 1   
    10     4    21 1   
    11     5     6 1   
    12     5    10 1   
    13     5    19 1   
    14     5    23 1   
    15     6     7 1   
    16     6    24 1   
    17     6    25 1   
    18     7     8 1   
    19     7    26 1   
    20     7    27 1   
    21     8     9 1   
    22     8    28 1   
    23     8    29 1   
    24     9    10 1   
    25     9    30 1   
    26     9    31 1   
    27    10    32 1   
    28    10    33 1   
    29    11    12 1   
    30    11    34 1   
    31    12    13 1   
    32    13    14 ar  
    33    13    18 ar  
    34    14    15 ar  
    35    14    35 1   
    36    15    16 ar  
    37    15    36 1   
    38    16    17 ar  
    39    16    37 1   
    40    17    18 ar  
    41    17    38 1   
    42    18    39 1   
    43    19    40 1   
    44    20    41 1   
@<TRIPOS>SUBSTRUCTURE
     1 TG9         1 TEMP              0 ****  ****    0 ROOT
