@<TRIPOS>MOLECULE
TG9
   42    44     1     0     0
SMALL
No Charge or Current Charge


@<TRIPOS>ATOM
      1 C           20.5970    16.3430    -7.0080 ce         1 TG9       0.690800
      2 N           20.4940    15.4540    -6.0060 nv         1 TG9      -1.077200
      3 C1          20.1570    17.7120    -6.8140 cc         1 TG9      -0.302900
      4 C10         19.2680    19.9140    -5.9150 cc         1 TG9       0.245000
      5 C11         18.0270    20.7580    -3.8750 c6         1 TG9       0.222500
      6 C12         18.0360    22.1140    -3.1200 c6         1 TG9      -0.092900
      7 C13         17.0690    23.1550    -3.7460 c6         1 TG9      -0.077400
      8 C14         15.6320    22.5890    -3.8590 c6         1 TG9      -0.077400
      9 C15         15.6150    21.2600    -4.6550 c6         1 TG9      -0.077400
     10 C16         16.5780    20.2170    -4.0280 c6         1 TG9      -0.092900
     11 C2          20.1970    18.7540    -7.7080 cd         1 TG9      -0.009000
     12 C3          19.6870    20.0050    -7.2310 cd         1 TG9      -0.189000
     13 C4          19.7410    21.2430    -8.0550 ca         1 TG9       0.009000
     14 C5          19.6890    21.1450    -9.4640 ca         1 TG9      -0.116500
     15 C6          19.7360    22.2940   -10.2730 ca         1 TG9      -0.107500
     16 C7          19.8490    23.5630    -9.6880 ca         1 TG9      -0.118000
     17 C8          19.9230    23.6800    -8.2920 ca         1 TG9      -0.107500
     18 C9          19.8740    22.5310    -7.4830 ca         1 TG9      -0.116500
     19 N1          18.6540    20.9240    -5.1950 nu         1 TG9      -0.927200
     20 N2          21.0780    15.9520    -8.1110 n2         1 TG9      -0.825100
     21 S           19.4780    18.2700    -5.2920 ss         1 TG9       0.136000
     22 H           20.3010    15.8550    -5.0980 hn         1 TG9       0.457500
     23 H9          18.6060    20.0390    -3.2760 h1         1 TG9       0.061700
     24 H11         19.0570    22.5200    -3.0880 hc         1 TG9       0.053200
     25 H10         17.7470    21.9400    -2.0750 hc         1 TG9       0.053200
     26 H12         17.4290    23.4550    -4.7400 hc         1 TG9       0.043450
     27 H13         17.0600    24.0680    -3.1340 hc         1 TG9       0.043450
     28 H15         14.9790    23.3250    -4.3480 hc         1 TG9       0.042200
     29 H14         15.2190    22.4240    -2.8550 hc         1 TG9       0.042200
     30 H16         14.5940    20.8550    -4.6780 hc         1 TG9       0.043450
     31 H17         15.8960    21.4500    -5.7000 hc         1 TG9       0.043450
     32 H18         16.2000    19.9300    -3.0370 hc         1 TG9       0.053200
     33 H19         16.5770    19.2980    -4.6300 hc         1 TG9       0.053200
     34 H2          20.6130    18.6290    -8.7030 ha         1 TG9       0.151000
     35 H3          19.5790    20.1780    -9.9460 ha         1 TG9       0.116000
     36 H4          19.6800    22.1980   -11.3560 ha         1 TG9       0.110500
     37 H5          19.8880    24.4520   -10.3140 ha         1 TG9       0.112000
     38 H6          20.0320    24.6610    -7.8360 ha         1 TG9       0.110500
     39 H7          19.9920    22.6600    -6.4120 ha         1 TG9       0.116000
     40 H8          18.4060    21.7450    -5.7430 hn         1 TG9       0.483000
     41 H20         21.0950    14.9280    -8.0970 hn         1 TG9       0.366400
     42 H1          21.1590    14.6910    -6.0140 hn         1 TG9       0.457500
@<TRIPOS>BOND
     1     1     2 1   
     2     1     3 1   
     3     1    20 2   
     4     2    22 1   
     5     2    42 1   
     6     3    11 2   
     7     3    21 1   
     8     4    12 2   
     9     4    19 1   
    10     4    21 1   
    11     5     6 1   
    12     5    10 1   
    13     5    19 1   
    14     5    23 1   
    15     6     7 1   
    16     6    24 1   
    17     6    25 1   
    18     7     8 1   
    19     7    26 1   
    20     7    27 1   
    21     8     9 1   
    22     8    28 1   
    23     8    29 1   
    24     9    10 1   
    25     9    30 1   
    26     9    31 1   
    27    10    32 1   
    28    10    33 1   
    29    11    12 1   
    30    11    34 1   
    31    12    13 1   
    32    13    14 ar  
    33    13    18 ar  
    34    14    15 ar  
    35    14    35 1   
    36    15    16 ar  
    37    15    36 1   
    38    16    17 ar  
    39    16    37 1   
    40    17    18 ar  
    41    17    38 1   
    42    18    39 1   
    43    19    40 1   
    44    20    41 1   
@<TRIPOS>SUBSTRUCTURE
     1 TG9         1 TEMP              0 ****  ****    0 ROOT
