@<TRIPOS>MOLECULE
TGA
   31    31     1     0     0
SMALL
abcg2


@<TRIPOS>ATOM
      1 O2          -0.7190     2.7100     0.4480 oh         1 TGA      -0.728000
      2 C2          -1.0490     1.4530    -0.0900 c6         1 TGA       0.107300
      3 C3          -2.3790     1.0280     0.5190 c6         1 TGA       0.141300
      4 O3          -3.4330     1.8800     0.1440 oh         1 TGA      -0.668000
      5 C4          -2.7430    -0.3860     0.0750 c6         1 TGA       0.145300
      6 O4          -3.0160    -0.4450    -1.3030 oh         1 TGA      -0.709000
      7 C5          -1.5790    -1.3200     0.3880 c6         1 TGA       0.183300
      8 C6          -1.8360    -2.7390    -0.0740 c3         1 TGA       0.172600
      9 O6          -0.8200    -3.5680     0.4370 oh         1 TGA      -0.716000
     10 O5          -0.3870    -0.8580    -0.2150 os         1 TGA      -0.455000
     11 C1           0.0060     0.4030     0.2530 c6         1 TGA       0.370300
     12 O1           1.1870     0.7550    -0.3670 os         1 TGA      -0.457000
     13 C13          2.3480     0.1400     0.1600 c3         1 TGA       0.173600
     14 C14          3.5460     0.8090    -0.4840 c3         1 TGA       0.074600
     15 S15          5.0540     0.0480     0.2020 sh         1 TGA      -0.447800
     16 H            5.9350     0.7490    -0.5180 hs         1 TGA       0.215800
     17 H2           0.0070     3.0820    -0.0630 ho         1 TGA       0.524000
     18 HA          -1.1500     1.4980    -1.1830 h1         1 TGA       0.075700
     19 H3          -2.2590     1.0120     1.6140 h1         1 TGA       0.048700
     20 H1           0.1390     0.3680     1.3520 h2         1 TGA       0.030700
     21 HB          -3.1650     2.7910     0.3040 ho         1 TGA       0.470000
     22 H4          -3.6080    -0.7210     0.6660 h1         1 TGA       0.050700
     23 HC          -3.6760     0.2270    -1.5030 ho         1 TGA       0.522000
     24 H5          -1.4660    -1.3350     1.4840 h1         1 TGA       0.047700
     25 H61C        -2.8260    -3.0370     0.2940 h1         1 TGA       0.038700
     26 H62C        -1.8740    -2.7720    -1.1690 h1         1 TGA       0.038700
     27 H6          -0.9780    -4.4610     0.1190 ho         1 TGA       0.506000
     28 H131         2.3820     0.2670     1.2490 h1         1 TGA       0.051200
     29 H132         2.3560    -0.9340    -0.0490 h1         1 TGA       0.051200
     30 H141         3.5260     0.6660    -1.5640 h1         1 TGA       0.069700
     31 H142         3.5440     1.8770    -0.2690 h1         1 TGA       0.069700
@<TRIPOS>BOND
     1     1     2 1   
     2     1    17 1   
     3     2     3 1   
     4     2    11 1   
     5     2    18 1   
     6     3     4 1   
     7     3     5 1   
     8     3    19 1   
     9     4    21 1   
    10     5     6 1   
    11     5     7 1   
    12     5    22 1   
    13     6    23 1   
    14     7     8 1   
    15     7    10 1   
    16     7    24 1   
    17     8     9 1   
    18     8    25 1   
    19     8    26 1   
    20     9    27 1   
    21    10    11 1   
    22    11    12 1   
    23    11    20 1   
    24    12    13 1   
    25    13    14 1   
    26    13    28 1   
    27    13    29 1   
    28    14    15 1   
    29    14    30 1   
    30    14    31 1   
    31    15    16 1   
@<TRIPOS>SUBSTRUCTURE
     1 TGA         1 TEMP              0 ****  ****    0 ROOT
