@<TRIPOS>MOLECULE
TGA
   31    31     1     0     0
SMALL
No Charge or Current Charge


@<TRIPOS>ATOM
      1 O2          -0.8590     2.8830     0.3480 oh         1 TGA      -0.728000
      2 C2          -1.1460     1.5270    -0.0790 c6         1 TGA       0.107300
      3 C3          -2.5170     1.0480     0.4880 c6         1 TGA       0.141300
      4 O3          -3.5630     1.9290     0.0400 oh         1 TGA      -0.668000
      5 C4          -2.8170    -0.4230     0.0570 c6         1 TGA       0.145300
      6 O4          -3.1090    -0.4450    -1.3560 oh         1 TGA      -0.709000
      7 C5          -1.5910    -1.3240     0.4370 c6         1 TGA       0.183300
      8 C6          -1.7700    -2.8110    -0.0180 c3         1 TGA       0.172600
      9 O6          -0.6760    -3.6650     0.3800 oh         1 TGA      -0.716000
     10 O5          -0.3640    -0.7990    -0.1370 os         1 TGA      -0.455000
     11 C1          -0.0320     0.5150     0.3490 c6         1 TGA       0.370300
     12 O1           1.2380     0.9190    -0.1920 os         1 TGA      -0.457000
     13 C13          2.3760     0.1410     0.2210 c3         1 TGA       0.173600
     14 C14          3.6270     0.7410    -0.4480 c3         1 TGA       0.074600
     15 S15          5.2060    -0.1380    -0.0150 sh         1 TGA      -0.447800
     16 H            6.0230     0.6480    -0.7610 hs         1 TGA       0.215800
     17 H2           0.0830     3.0540     0.1040 ho         1 TGA       0.524000
     18 HA          -1.1990     1.4930    -1.1780 h1         1 TGA       0.075700
     19 H3          -2.4580     1.0730     1.5870 h1         1 TGA       0.048700
     20 H1           0.0370     0.4940     1.4470 h2         1 TGA       0.030700
     21 HB          -3.1830     2.8350     0.1310 ho         1 TGA       0.470000
     22 H4          -3.6930    -0.7750     0.6220 h1         1 TGA       0.050700
     23 HC          -3.6200     0.3870    -1.5090 ho         1 TGA       0.522000
     24 H5          -1.4880    -1.3270     1.5330 h1         1 TGA       0.047700
     25 H61C        -2.7110    -3.1850     0.4060 h1         1 TGA       0.038700
     26 H62C        -1.8780    -2.8260    -1.1110 h1         1 TGA       0.038700
     27 H6          -0.8390    -4.5490    -0.0260 ho         1 TGA       0.506000
     28 H131         2.4950     0.1730     1.3120 h1         1 TGA       0.051200
     29 H132         2.2690    -0.9070    -0.0860 h1         1 TGA       0.051200
     30 H141         3.5010     0.7080    -1.5380 h1         1 TGA       0.069700
     31 H142         3.7240     1.7930    -0.1480 h1         1 TGA       0.069700
@<TRIPOS>BOND
     1     1     2 1   
     2     1    17 1   
     3     2     3 1   
     4     2    11 1   
     5     2    18 1   
     6     3     4 1   
     7     3     5 1   
     8     3    19 1   
     9     4    21 1   
    10     5     6 1   
    11     5     7 1   
    12     5    22 1   
    13     6    23 1   
    14     7     8 1   
    15     7    10 1   
    16     7    24 1   
    17     8     9 1   
    18     8    25 1   
    19     8    26 1   
    20     9    27 1   
    21    10    11 1   
    22    11    12 1   
    23    11    20 1   
    24    12    13 1   
    25    13    14 1   
    26    13    28 1   
    27    13    29 1   
    28    14    15 1   
    29    14    30 1   
    30    14    31 1   
    31    15    16 1   
@<TRIPOS>SUBSTRUCTURE
     1 TGA         1 TEMP              0 ****  ****    0 ROOT
