@<TRIPOS>MOLECULE
TGB
   61    64     1     0     0
SMALL
abcg2


@<TRIPOS>ATOM
      1 C13          0.6030   -30.6790     5.2730 c5         1 TGB       0.100300
      2 C15         -0.2980   -31.9060     5.4020 c5         1 TGB       0.323300
      3 C17         -1.7310   -31.7810     3.3280 cc         1 TGB       0.495700
      4 C20         -1.2120   -34.8440     1.6920 ca         1 TGB       0.428900
      5 C01          6.7180   -29.5280     8.8450 c3         1 TGB       0.228100
      6 C03          4.8170   -31.0910     8.7820 ca         1 TGB       0.397000
      7 C04          5.5560   -32.0640     9.4920 ca         1 TGB      -0.241000
      8 C05          5.0170   -33.2950     9.7920 ca         1 TGB      -0.044000
      9 C06          3.7180   -33.6270     9.4080 ca         1 TGB      -0.206000
     10 C07          2.9740   -32.6900     8.7250 ca         1 TGB       0.013000
     11 C08          3.4840   -31.4240     8.4050 ca         1 TGB      -0.226600
     12 C12          0.5150   -30.1190     6.7000 c5         1 TGB       0.118300
     13 C19         -1.3160   -33.6620     2.4490 ca         1 TGB      -0.070600
     14 C23          0.2630   -35.6210     3.2790 ca         1 TGB       0.131900
     15 C25         -0.5590   -33.6130     3.6090 ca         1 TGB       0.095500
     16 C27         -0.9180   -30.4720     7.1130 c5         1 TGB       0.165300
     17 N16         -0.8340   -32.3950     4.1630 na         1 TGB      -0.285300
     18 N18         -2.0400   -32.5070     2.2930 nd         1 TGB      -0.554100
     19 N21         -1.8910   -35.0420     0.5610 nv         1 TGB      -1.081900
     20 N22         -0.4040   -35.8100     2.1450 nb         1 TGB      -0.339000
     21 N24          0.2500   -34.5630     4.0720 nb         1 TGB      -0.211000
     22 O11          1.3900   -30.8630     7.5410 os         1 TGB      -0.442100
     23 O14          1.8640   -31.0800     4.8450 oh         1 TGB      -0.716000
     24 O26         -1.3480   -31.5130     6.2330 os         1 TGB      -0.436000
     25 O31         -2.0760   -26.6080     4.3740 o          1 TGB      -0.851500
     26 O32         -2.7770   -26.5180     6.8870 o          1 TGB      -0.851500
     27 O33         -4.1120   -27.9250     5.3090 os         1 TGB      -0.713800
     28 O39         -6.7510   -28.2510     1.3820 o          1 TGB      -0.817500
     29 O40         -7.0440   -25.7640     2.1110 o          1 TGB      -0.817500
     30 P34         -4.7240   -28.6260     3.9580 p5         1 TGB       1.525800
     31 P38         -6.7910   -27.1980     2.4410 p5         1 TGB       1.318800
     32 S41         -8.2540   -27.7610     3.9350 sh         1 TGB      -0.621200
     33 H1           0.1410   -29.9540     4.5930 h1         1 TGB       0.126700
     34 H2           0.2750   -32.7380     5.8310 h2         1 TGB       0.072700
     35 H3          -2.1270   -30.7950     3.5340 h5         1 TGB       0.170800
     36 H4          -1.6770   -28.6630     7.9150 h1         1 TGB       0.043200
     37 H5          -2.9020   -29.6950     7.1770 h1         1 TGB       0.043200
     38 H6           6.9030   -28.5250     8.4720 h1         1 TGB       0.025033
     39 H7           6.8760   -29.5160     9.9270 h1         1 TGB       0.025033
     40 H8           7.4650   -30.1940     8.4040 h1         1 TGB       0.025033
     41 H9           6.5680   -31.8460     9.8030 ha         1 TGB       0.097000
     42 H10          5.6200   -34.0120    10.3340 ha         1 TGB       0.089000
     43 H11          3.3000   -34.5970     9.6380 ha         1 TGB       0.110000
     44 H12          1.9670   -32.9430     8.4270 ha         1 TGB       0.143000
     45 H13          0.7220   -29.0510     6.7720 h1         1 TGB       0.115700
     46 H14          0.8980   -36.4430     3.5900 h5         1 TGB       0.012100
     47 H15         -0.9260   -30.8490     8.1410 h1         1 TGB       0.041700
     48 H16          4.8260   -29.2560     7.9470 hn         1 TGB       0.539000
     49 H17         -1.7500   -35.8840     0.0290 hn         1 TGB       0.495500
     50 H18         -2.4630   -34.3180     0.1650 hn         1 TGB       0.495500
     51 H19          2.3280   -30.3230     4.4750 ho         1 TGB       0.510000
     52 H23         -9.1740   -26.8950     3.4930 hs         1 TGB       0.216800
     53 C28         -1.8830   -29.3100     7.0560 c3         1 TGB       0.220600
     54 C09          2.6530   -30.4580     7.6770 c          1 TGB       0.635700
     55 O29         -1.7380   -28.6140     5.8420 os         1 TGB      -0.606400
     56 O10          3.0380   -29.3870     7.2520 o          1 TGB      -0.538000
     57 P30         -2.6360   -27.2550     5.5940 p5         1 TGB       1.472800
     58 N02          5.3750   -29.8990     8.4920 nu         1 TGB      -0.978200
     59 O35         -5.8000   -29.5640     4.4040 o          1 TGB      -0.869500
     60 O36         -3.6410   -29.0930     3.0370 o          1 TGB      -0.869500
     61 O37         -5.4290   -27.2570     3.3500 os         1 TGB      -0.678800
@<TRIPOS>BOND
     1     1     2 1   
     2     1    12 1   
     3     1    23 1   
     4     1    33 1   
     5     2    17 1   
     6     2    24 1   
     7     2    34 1   
     8     3    17 1   
     9     3    18 2   
    10     3    35 1   
    11     4    13 ar  
    12     4    19 1   
    13     4    20 ar  
    14     5    38 1   
    15     5    39 1   
    16     5    40 1   
    17     5    58 1   
    18     6     7 ar  
    19     6    11 ar  
    20     6    58 1   
    21     7     8 ar  
    22     7    41 1   
    23     8     9 ar  
    24     8    42 1   
    25     9    10 ar  
    26     9    43 1   
    27    10    11 ar  
    28    10    44 1   
    29    11    54 1   
    30    12    16 1   
    31    12    22 1   
    32    12    45 1   
    33    13    15 ar  
    34    13    18 1   
    35    14    20 ar  
    36    14    21 ar  
    37    14    46 1   
    38    15    17 1   
    39    15    21 ar  
    40    16    24 1   
    41    16    47 1   
    42    16    53 1   
    43    19    49 1   
    44    19    50 1   
    45    22    54 1   
    46    23    51 1   
    47    25    57 1   
    48    26    57 1   
    49    27    30 1   
    50    27    57 1   
    51    28    31 1   
    52    29    31 1   
    53    30    59 1   
    54    30    60 1   
    55    30    61 1   
    56    31    32 1   
    57    31    61 1   
    58    32    52 1   
    59    36    53 1   
    60    37    53 1   
    61    48    58 1   
    62    53    55 1   
    63    54    56 2   
    64    55    57 1   
@<TRIPOS>SUBSTRUCTURE
     1 TGB         1 TEMP              0 ****  ****    0 ROOT
