@<TRIPOS>MOLECULE
TGB
   61    64     1     0     0
SMALL
No Charge or Current Charge


@<TRIPOS>ATOM
      1 C13          0.1100   -30.3000     5.4380 c5         1 TGB       0.100300
      2 C15         -0.4600   -31.7480     5.3990 c5         1 TGB       0.323300
      3 C17         -1.1280   -31.5470     2.9450 cc         1 TGB       0.495700
      4 C20         -1.6500   -34.8910     1.8810 ca         1 TGB       0.428900
      5 C01          6.6410   -29.0870     7.8500 c3         1 TGB       0.228100
      6 C03          4.8590   -30.8430     8.4350 ca         1 TGB       0.397000
      7 C04          5.7820   -31.6890     9.0790 ca         1 TGB      -0.241000
      8 C05          5.4180   -32.9810     9.4790 ca         1 TGB      -0.044000
      9 C06          4.1170   -33.4360     9.2390 ca         1 TGB      -0.206000
     10 C07          3.1830   -32.6040     8.6040 ca         1 TGB       0.013000
     11 C08          3.5380   -31.2950     8.1940 ca         1 TGB      -0.226600
     12 C12          0.1710   -30.1230     6.9940 c5         1 TGB       0.118300
     13 C19         -1.4100   -33.6350     2.4780 ca         1 TGB      -0.070600
     14 C23         -1.2490   -35.8850     3.9030 ca         1 TGB       0.131900
     15 C25         -1.0940   -33.6030     3.8130 ca         1 TGB       0.095500
     16 C27         -1.1800   -30.8040     7.4190 c5         1 TGB       0.165300
     17 N16         -0.9070   -32.2850     4.1170 na         1 TGB      -0.285300
     18 N18         -1.4300   -32.3590     1.9080 nd         1 TGB      -0.554100
     19 N21         -1.9620   -35.0410     0.5650 nv         1 TGB      -1.081900
     20 N22         -1.5680   -36.0260     2.5930 nb         1 TGB      -0.339000
     21 N24         -1.0040   -34.7240     4.5570 nb         1 TGB      -0.211000
     22 O11          1.2330   -30.9420     7.5830 os         1 TGB      -0.442100
     23 O14          1.3610   -30.1090     4.7420 oh         1 TGB      -0.716000
     24 O26         -1.5700   -31.6660     6.3110 os         1 TGB      -0.436000
     25 O31         -3.4930   -26.6790     5.7880 o          1 TGB      -0.851500
     26 O32         -4.3830   -27.6710     7.8350 o          1 TGB      -0.851500
     27 O33         -4.5500   -29.0410     5.7360 os         1 TGB      -0.713800
     28 O39         -5.1640   -28.6940     1.2320 o          1 TGB      -0.817500
     29 O40         -3.9800   -26.6160     1.9780 o          1 TGB      -0.817500
     30 P34         -4.3070   -29.1550     4.1830 p5         1 TGB       1.525800
     31 P38         -5.0960   -27.5770     2.2190 p5         1 TGB       1.318800
     32 S41         -6.8950   -26.5070     2.1130 sh         1 TGB      -0.621200
     33 H1          -0.6450   -29.6070     5.0370 h1         1 TGB       0.126700
     34 H2           0.2850   -32.4570     5.7840 h2         1 TGB       0.072700
     35 H3          -1.0270   -30.4670     2.9020 h5         1 TGB       0.170800
     36 H4          -2.1590   -29.3900     8.7430 h1         1 TGB       0.043200
     37 H5          -3.2820   -30.3680     7.7760 h1         1 TGB       0.043200
     38 H6           6.6330   -28.0470     7.4980 h1         1 TGB       0.025033
     39 H7           7.2120   -29.1300     8.7860 h1         1 TGB       0.025033
     40 H8           7.1490   -29.7060     7.0970 h1         1 TGB       0.025033
     41 H9           6.7940   -31.3510     9.2790 ha         1 TGB       0.097000
     42 H10          6.1410   -33.6260     9.9750 ha         1 TGB       0.089000
     43 H11          3.8290   -34.4390     9.5470 ha         1 TGB       0.110000
     44 H12          2.1810   -32.9940     8.4330 ha         1 TGB       0.143000
     45 H13          0.2400   -29.0780     7.3310 h1         1 TGB       0.115700
     46 H14         -1.1800   -36.7990     4.4900 h5         1 TGB       0.012100
     47 H15         -1.0300   -31.4390     8.3030 h1         1 TGB       0.041700
     48 H16          4.5270   -29.0390     7.5710 hn         1 TGB       0.539000
     49 H17         -1.8400   -35.9590     0.1470 hn         1 TGB       0.495500
     50 H18         -1.8200   -34.2360    -0.0410 hn         1 TGB       0.495500
     51 H19          1.9790   -29.6790     5.3910 ho         1 TGB       0.510000
     52 H23         -6.1550   -25.4210     2.4240 hs         1 TGB       0.216800
     53 C28         -2.3340   -29.8150     7.7460 c3         1 TGB       0.220600
     54 C09          2.5060   -30.4250     7.5190 c          1 TGB       0.635700
     55 O29         -2.3590   -28.7690     6.7630 os         1 TGB      -0.606400
     56 O10          2.7670   -29.3710     6.9480 o          1 TGB      -0.538000
     57 P30         -3.7260   -27.9550     6.5240 p5         1 TGB       1.472800
     58 N02          5.2640   -29.5620     8.0600 nu         1 TGB      -0.978200
     59 O35         -4.8230   -30.4920     3.7590 o          1 TGB      -0.869500
     60 O36         -2.8770   -28.9860     3.7880 o          1 TGB      -0.869500
     61 O37         -5.2850   -28.0010     3.7280 os         1 TGB      -0.678800
@<TRIPOS>BOND
     1     1     2 1   
     2     1    12 1   
     3     1    23 1   
     4     1    33 1   
     5     2    17 1   
     6     2    24 1   
     7     2    34 1   
     8     3    17 1   
     9     3    18 2   
    10     3    35 1   
    11     4    13 ar  
    12     4    19 1   
    13     4    20 ar  
    14     5    38 1   
    15     5    39 1   
    16     5    40 1   
    17     5    58 1   
    18     6     7 ar  
    19     6    11 ar  
    20     6    58 1   
    21     7     8 ar  
    22     7    41 1   
    23     8     9 ar  
    24     8    42 1   
    25     9    10 ar  
    26     9    43 1   
    27    10    11 ar  
    28    10    44 1   
    29    11    54 1   
    30    12    16 1   
    31    12    22 1   
    32    12    45 1   
    33    13    15 ar  
    34    13    18 1   
    35    14    20 ar  
    36    14    21 ar  
    37    14    46 1   
    38    15    17 1   
    39    15    21 ar  
    40    16    24 1   
    41    16    47 1   
    42    16    53 1   
    43    19    49 1   
    44    19    50 1   
    45    22    54 1   
    46    23    51 1   
    47    25    57 1   
    48    26    57 1   
    49    27    30 1   
    50    27    57 1   
    51    28    31 1   
    52    29    31 1   
    53    30    59 1   
    54    30    60 1   
    55    30    61 1   
    56    31    32 1   
    57    31    61 1   
    58    32    52 1   
    59    36    53 1   
    60    37    53 1   
    61    48    58 1   
    62    53    55 1   
    63    54    56 2   
    64    55    57 1   
@<TRIPOS>SUBSTRUCTURE
     1 TGB         1 TEMP              0 ****  ****    0 ROOT
