@<TRIPOS>MOLECULE
TGD
   23    22     1     0     0
SMALL
bcc


@<TRIPOS>ATOM
      1 C1           2.9900     1.2770    -0.5430 c3         1 TGD      -0.189100
      2 C2           2.3220     0.2070     0.2610 c          1 TGD       0.555100
      3 C3           1.0350    -0.4100    -0.2850 c3         1 TGD       0.020100
      4 C4          -0.1610     0.2810     0.4020 c3         1 TGD       0.088100
      5 O2           2.7730    -0.2100     1.3040 o          1 TGD      -0.525100
      6 O3           1.0180    -1.7950    -0.0760 oh         1 TGD      -0.572800
      7 O4          -0.0560     1.6820     0.3040 oh         1 TGD      -0.591800
      8 C5          -1.5000    -0.2410    -0.1250 c3         1 TGD       0.117100
      9 O5          -1.6530     0.0860    -1.4920 oh         1 TGD      -0.590800
     10 C6          -2.6490     0.2680     0.7290 c3         1 TGD       0.103400
     11 O6          -3.8460    -0.3140     0.2680 oh         1 TGD      -0.590800
     12 H1           3.6000     0.7870    -1.3080 hc         1 TGD       0.064367
     13 H2           2.2750     1.9040    -1.0700 hc         1 TGD       0.064367
     14 H3           3.6440     1.8930     0.0720 hc         1 TGD       0.064367
     15 H4           0.9780    -0.2480    -1.3660 h1         1 TGD       0.098700
     16 H5          -0.1010     0.0480     1.4720 h1         1 TGD       0.082700
     17 H6           1.2320    -1.9650     0.8490 ho         1 TGD       0.417000
     18 H7          -0.1950     1.9360    -0.6160 ho         1 TGD       0.406000
     19 H8          -1.4850    -1.3330    -0.0520 h1         1 TGD       0.099700
     20 H9          -2.1980     0.8750    -1.5770 ho         1 TGD       0.406000
     21 H10         -2.4440     0.0060     1.7740 h1         1 TGD       0.030700
     22 H11         -2.6890     1.3650     0.6770 h1         1 TGD       0.030700
     23 H12         -4.5700     0.0470     0.7880 ho         1 TGD       0.409000
@<TRIPOS>BOND
     1     1     2 1   
     2     1    12 1   
     3     1    13 1   
     4     1    14 1   
     5     2     3 1   
     6     2     5 2   
     7     3     4 1   
     8     3     6 1   
     9     3    15 1   
    10     4     7 1   
    11     4     8 1   
    12     4    16 1   
    13     6    17 1   
    14     7    18 1   
    15     8     9 1   
    16     8    10 1   
    17     8    19 1   
    18     9    20 1   
    19    10    11 1   
    20    10    21 1   
    21    10    22 1   
    22    11    23 1   
@<TRIPOS>SUBSTRUCTURE
     1 TGD         1 TEMP              0 ****  ****    0 ROOT
