@<TRIPOS>MOLECULE
TGD
   23    22     1     0     0
SMALL
No Charge or Current Charge


@<TRIPOS>ATOM
      1 C1           3.1420     1.2160    -0.5870 c3         1 TGD      -0.189100
      2 C2           2.4340     0.2420     0.3590 c          1 TGD       0.555100
      3 C3           1.0980    -0.3850    -0.1470 c3         1 TGD       0.043300
      4 C4          -0.1390     0.3320     0.4750 c3         1 TGD       0.111300
      5 O2           3.0210    -0.2210     1.3320 o          1 TGD      -0.525100
      6 O3           1.0370    -1.8160     0.1250 oh         1 TGD      -0.695000
      7 O4          -0.0420     1.7480     0.2620 oh         1 TGD      -0.714000
      8 C5          -1.4930    -0.1370    -0.1400 c3         1 TGD       0.140300
      9 O5          -1.6500     0.4400    -1.4540 oh         1 TGD      -0.713000
     10 C6          -2.7280     0.2700     0.7070 c3         1 TGD       0.126600
     11 O6          -3.9340    -0.0620    -0.0090 oh         1 TGD      -0.713000
     12 H1           3.1720     0.7790    -1.5920 hc         1 TGD       0.064367
     13 H2           2.5120     2.0990    -0.7370 hc         1 TGD       0.064367
     14 H3           4.1470     1.4830    -0.2420 hc         1 TGD       0.064367
     15 H4           1.0650    -0.2170    -1.2320 h1         1 TGD       0.098700
     16 H5          -0.1490     0.1110     1.5530 h1         1 TGD       0.082700
     17 H6           1.5970    -1.9880     0.9230 ho         1 TGD       0.516000
     18 H7          -0.5780     1.8900    -0.5590 ho         1 TGD       0.505000
     19 H8          -1.4890    -1.2350    -0.1990 h1         1 TGD       0.099700
     20 H9          -2.6220     0.3680    -1.6230 ho         1 TGD       0.505000
     21 H10         -2.6930    -0.2600     1.6680 h1         1 TGD       0.030700
     22 H11         -2.6950     1.3470     0.9190 h1         1 TGD       0.030700
     23 H12         -4.6940     0.1430     0.5880 ho         1 TGD       0.508000
@<TRIPOS>BOND
     1     1     2 1   
     2     1    12 1   
     3     1    13 1   
     4     1    14 1   
     5     2     3 1   
     6     2     5 2   
     7     3     4 1   
     8     3     6 1   
     9     3    15 1   
    10     4     7 1   
    11     4     8 1   
    12     4    16 1   
    13     6    17 1   
    14     7    18 1   
    15     8     9 1   
    16     8    10 1   
    17     8    19 1   
    18     9    20 1   
    19    10    11 1   
    20    10    21 1   
    21    10    22 1   
    22    11    23 1   
@<TRIPOS>SUBSTRUCTURE
     1 TGD         1 TEMP              0 ****  ****    0 ROOT
