@<TRIPOS>MOLECULE
TGE
   66    69     1     0     0
SMALL
No Charge or Current Charge


@<TRIPOS>ATOM
      1 C1           7.9460     0.5380     0.0580 c6         1 TGE       0.128300
      2 N1           6.5620     1.0670    -0.1590 n3         1 TGE      -0.720600
      3 O1           8.9150     2.7740    -0.3240 os         1 TGE      -0.449000
      4 C2           9.0150     1.3800    -0.7010 c6         1 TGE       0.153100
      5 N2          -0.4620    -1.2810     1.3980 n          1 TGE      -0.263000
      6 C3           7.6080     3.3320    -0.5970 c6         1 TGE       0.153100
      7 N3           1.2360     0.7180     0.0610 nc         1 TGE      -0.642100
      8 C4           6.5060     2.5320     0.1600 c6         1 TGE       0.128300
      9 N4          -6.6750     1.0730     0.6270 nb         1 TGE      -0.763000
     10 O4          -0.7300    -3.9130     0.1340 os         1 TGE      -0.450000
     11 C5          -0.1780     0.7380     0.0090 ca         1 TGE       0.076400
     12 N5          -2.1470     1.9530    -0.8130 nb         1 TGE      -0.680000
     13 C6          -1.0330    -0.2140     0.6230 ca         1 TGE       0.050600
     14 N6           3.0950    -0.3100     0.8730 nu         1 TGE      -0.883400
     15 C7           0.9380    -1.3710     1.5400 c          1 TGE       0.443700
     16 C8           1.7180    -0.2870     0.7970 cd         1 TGE       0.617200
     17 C9          -4.4260     1.3640    -0.2850 cp         1 TGE      -0.237500
     18 C10         -5.3410     0.8640     0.6720 ca         1 TGE       0.392900
     19 C11         -7.1690     1.8050    -0.3920 ca         1 TGE       0.591300
     20 C12         -6.3520     2.3520    -1.3880 ca         1 TGE      -0.193000
     21 C13         -4.9680     2.1380    -1.3420 ca         1 TGE      -0.008000
     22 C14         -0.8080     1.7850    -0.7120 ca         1 TGE       0.385900
     23 C15         -2.9580     1.0950    -0.1700 cp         1 TGE       0.426500
     24 C16         -2.4280     0.0040     0.5570 ca         1 TGE      -0.189000
     25 C17         -9.4340     1.5130     0.5080 c3         1 TGE       0.159900
     26 C19         -1.8500    -3.3420     0.8340 c3         1 TGE       0.144600
     27 C20         -1.0850    -4.8020    -0.9350 c3         1 TGE       0.160600
     28 C21          0.2220    -5.3030    -1.5770 c3         1 TGE      -0.079400
     29 C22         -0.0160    -6.2720    -2.7510 c3         1 TGE      -0.090100
     30 C23          4.0520     0.6060     0.2080 c3         1 TGE       0.230800
     31 C24          5.5290     0.2550     0.5440 c3         1 TGE       0.152800
     32 H1           8.1930     0.5430     1.1300 h1         1 TGE       0.042450
     33 H1A          8.0130    -0.5050    -0.2830 h1         1 TGE       0.042450
     34 H2          10.0220     1.0120    -0.4590 h1         1 TGE       0.052450
     35 H2A          8.8660     1.2850    -1.7860 h1         1 TGE       0.052450
     36 H3           7.5920     4.3840    -0.2790 h1         1 TGE       0.052450
     37 H3A          7.4180     3.2990    -1.6800 h1         1 TGE       0.052450
     38 H4           5.5290     2.9540    -0.1140 h1         1 TGE       0.042450
     39 H4A          6.6350     2.6930     1.2410 h1         1 TGE       0.042450
     40 H10         -4.9970     0.2830     1.5250 h4         1 TGE       0.015100
     41 H12         -6.7960     2.9370    -2.1870 ha         1 TGE       0.139000
     42 H13         -4.3300     2.5590    -2.1180 ha         1 TGE       0.141000
     43 H14         -0.2020     2.5310    -1.2250 h4         1 TGE       0.037100
     44 H16         -3.1160    -0.6740     1.0450 ha         1 TGE       0.124000
     45 H17        -10.4640     1.8060     0.2700 h1         1 TGE       0.047033
     46 H17A        -9.3910     0.4160     0.5350 h1         1 TGE       0.047033
     47 H17B        -9.1950     1.8960     1.5090 h1         1 TGE       0.047033
     48 H18         -0.7540    -2.9880     2.6550 h1         1 TGE       0.077200
     49 H18A        -2.1560    -1.9620     2.4830 h1         1 TGE       0.077200
     50 H19         -2.4940    -2.7860     0.1410 h1         1 TGE       0.030200
     51 H19A        -2.4540    -4.1280     1.3060 h1         1 TGE       0.030200
     52 H20         -1.6620    -5.6560    -0.5550 h1         1 TGE       0.020700
     53 H20A        -1.6890    -4.2800    -1.6890 h1         1 TGE       0.020700
     54 H21          0.8010    -4.4430    -1.9340 hc         1 TGE       0.053200
     55 H21A         0.8280    -5.8070    -0.8140 hc         1 TGE       0.053200
     56 H22         -0.5670    -7.1590    -2.4170 hc         1 TGE       0.034367
     57 H22A        -0.5940    -5.7840    -3.5460 hc         1 TGE       0.034367
     58 H22B         0.9400    -6.6020    -3.1750 hc         1 TGE       0.034367
     59 HN6          3.4580    -1.0870     1.4250 hn         1 TGE       0.519000
     60 H23          3.9210     0.5550    -0.8820 h1         1 TGE       0.062200
     61 H23A         3.8480     1.6390     0.5200 h1         1 TGE       0.062200
     62 H24          5.6790    -0.8030     0.2910 h1         1 TGE       0.037700
     63 H24A         5.6670     0.3450     1.6310 h1         1 TGE       0.037700
     64 C18         -1.3130    -2.3880     1.9260 c3         1 TGE       0.086000
     65 O2          -8.5220     2.0390    -0.4750 os         1 TGE      -0.458300
     66 O3           1.4790    -2.2570     2.2060 o          1 TGE      -0.534000
@<TRIPOS>BOND
     1     1     2 1   
     2     1     4 1   
     3     1    32 1   
     4     1    33 1   
     5     2     8 1   
     6     2    31 1   
     7     3     4 1   
     8     3     6 1   
     9     4    34 1   
    10     4    35 1   
    11     5    13 1   
    12     5    15 1   
    13     5    64 1   
    14     6     8 1   
    15     6    36 1   
    16     6    37 1   
    17     7    11 1   
    18     7    16 2   
    19     8    38 1   
    20     8    39 1   
    21     9    18 ar  
    22     9    19 ar  
    23    10    26 1   
    24    10    27 1   
    25    11    13 ar  
    26    11    22 ar  
    27    12    22 ar  
    28    12    23 ar  
    29    13    24 ar  
    30    14    16 1   
    31    14    30 1   
    32    14    59 1   
    33    15    16 1   
    34    15    66 2   
    35    17    18 ar  
    36    17    21 ar  
    37    17    23 1   
    38    18    40 1   
    39    19    20 ar  
    40    19    65 1   
    41    20    21 ar  
    42    20    41 1   
    43    21    42 1   
    44    22    43 1   
    45    23    24 ar  
    46    24    44 1   
    47    25    45 1   
    48    25    46 1   
    49    25    47 1   
    50    25    65 1   
    51    26    50 1   
    52    26    51 1   
    53    26    64 1   
    54    27    28 1   
    55    27    52 1   
    56    27    53 1   
    57    28    29 1   
    58    28    54 1   
    59    28    55 1   
    60    29    56 1   
    61    29    57 1   
    62    29    58 1   
    63    30    31 1   
    64    30    60 1   
    65    30    61 1   
    66    31    62 1   
    67    31    63 1   
    68    48    64 1   
    69    49    64 1   
@<TRIPOS>SUBSTRUCTURE
     1 TGE         1 TEMP              0 ****  ****    0 ROOT
