@<TRIPOS>MOLECULE
TGE
   66    69     1     0     0
SMALL
abcg2


@<TRIPOS>ATOM
      1 C1           7.6550     0.4190    -0.3020 c6         1 TGE       0.128300
      2 N1           6.3530     1.0400    -0.1340 n3         1 TGE      -0.720600
      3 O1           8.7150     2.5950    -0.3890 os         1 TGE      -0.449000
      4 C2           8.5810     1.3570    -1.0520 c6         1 TGE       0.153100
      5 N2          -0.4140    -1.1590     1.3390 n          1 TGE      -0.263000
      6 C3           7.4560     3.2050    -0.2080 c6         1 TGE       0.153100
      7 N3           1.1890     0.7600     0.0540 nc         1 TGE      -0.642100
      8 C4           6.5050     2.3080     0.5590 c6         1 TGE       0.128300
      9 N4          -6.5740     1.0170     0.5220 nb         1 TGE      -0.763000
     10 O4          -0.6050    -3.7930     0.3020 os         1 TGE      -0.450000
     11 C5          -0.1740     0.8190     0.0120 ca         1 TGE       0.076400
     12 N5          -2.1010     2.0020    -0.7910 nb         1 TGE      -0.680000
     13 C6          -1.0060    -0.1200     0.6390 ca         1 TGE       0.050600
     14 N6           3.0470    -0.3420     0.8180 nu         1 TGE      -0.883400
     15 C7           0.9420    -1.2720     1.4270 c          1 TGE       0.443700
     16 C8           1.7240    -0.2110     0.7190 cd         1 TGE       0.617200
     17 C9          -4.3460     1.3310    -0.3140 cp         1 TGE      -0.237500
     18 C10         -5.2580     0.8410     0.6080 ca         1 TGE       0.392900
     19 C11         -7.0490     1.7010    -0.4970 ca         1 TGE       0.591300
     20 C12         -6.2300     2.2610    -1.4870 ca         1 TGE      -0.193000
     21 C13         -4.8740     2.0720    -1.3810 ca         1 TGE      -0.008000
     22 C14         -0.7970     1.8500    -0.6930 ca         1 TGE       0.385900
     23 C15         -2.8940     1.1160    -0.1830 cp         1 TGE       0.426500
     24 C16         -2.3850     0.0350     0.5280 ca         1 TGE      -0.189000
     25 C17         -9.2110     1.3360     0.3850 c3         1 TGE       0.159900
     26 C19         -1.7160    -3.2150     0.9240 c3         1 TGE       0.144600
     27 C20         -0.9440    -4.6370    -0.7730 c3         1 TGE       0.160600
     28 C21          0.3210    -5.1620    -1.4190 c3         1 TGE      -0.079400
     29 C22          0.0100    -6.0730    -2.5980 c3         1 TGE      -0.090100
     30 C23          3.9680     0.5590     0.1690 c3         1 TGE       0.230800
     31 C24          5.3990     0.1580     0.5010 c3         1 TGE       0.152800
     32 H1           8.1110     0.1470     0.6660 h1         1 TGE       0.042450
     33 H1A          7.5460    -0.5030    -0.8780 h1         1 TGE       0.042450
     34 H2           9.5760     0.9180    -1.1320 h1         1 TGE       0.052450
     35 H2A          8.1940     1.5080    -2.0710 h1         1 TGE       0.052450
     36 H3           7.6190     4.1350     0.3400 h1         1 TGE       0.052450
     37 H3A          7.0080     3.4590    -1.1790 h1         1 TGE       0.052450
     38 H4           5.5420     2.8160     0.6380 h1         1 TGE       0.042450
     39 H4A          6.8770     2.1630     1.5890 h1         1 TGE       0.042450
     40 H10         -4.9220     0.2920     1.4810 h4         1 TGE       0.015100
     41 H12         -6.6600     2.8190    -2.3070 ha         1 TGE       0.139000
     42 H13         -4.2130     2.4910    -2.1270 ha         1 TGE       0.141000
     43 H14         -0.1700     2.5810    -1.1930 h4         1 TGE       0.037100
     44 H16         -3.0630    -0.6800     0.9650 ha         1 TGE       0.124000
     45 H17        -10.2220     1.6240     0.1080 h1         1 TGE       0.047033
     46 H17A        -9.1420     0.2480     0.4160 h1         1 TGE       0.047033
     47 H17B        -8.9830     1.7300     1.3760 h1         1 TGE       0.047033
     48 H18         -0.6430    -2.6930     2.7150 h1         1 TGE       0.077200
     49 H18A        -2.0860    -1.7470     2.4510 h1         1 TGE       0.077200
     50 H19         -2.3710    -2.7330     0.1840 h1         1 TGE       0.030200
     51 H19A        -2.3300    -3.9600     1.4480 h1         1 TGE       0.030200
     52 H20         -1.5660    -5.4760    -0.4270 h1         1 TGE       0.020700
     53 H20A        -1.5430    -4.0870    -1.5150 h1         1 TGE       0.020700
     54 H21          0.9310    -4.3190    -1.7530 hc         1 TGE       0.053200
     55 H21A         0.9110    -5.7050    -0.6760 hc         1 TGE       0.053200
     56 H22         -0.5780    -6.9390    -2.2890 hc         1 TGE       0.034367
     57 H22A        -0.5590    -5.5470    -3.3680 hc         1 TGE       0.034367
     58 H22B         0.9240    -6.4440    -3.0600 hc         1 TGE       0.034367
     59 HN6          3.4010    -1.1430     1.3160 hn         1 TGE       0.519000
     60 H23          3.8280     0.5330    -0.9150 h1         1 TGE       0.062200
     61 H23A         3.7590     1.5820     0.4910 h1         1 TGE       0.062200
     62 H24          5.5670    -0.8560     0.1270 h1         1 TGE       0.037700
     63 H24A         5.5330     0.1170     1.5950 h1         1 TGE       0.037700
     64 C18         -1.2340    -2.2030     1.9470 c3         1 TGE       0.086000
     65 O2          -8.3630     1.8900    -0.6120 os         1 TGE      -0.458300
     66 O3           1.5090    -2.1550     2.0420 o          1 TGE      -0.534000
@<TRIPOS>BOND
     1     1     2 1   
     2     1     4 1   
     3     1    32 1   
     4     1    33 1   
     5     2     8 1   
     6     2    31 1   
     7     3     4 1   
     8     3     6 1   
     9     4    34 1   
    10     4    35 1   
    11     5    13 1   
    12     5    15 1   
    13     5    64 1   
    14     6     8 1   
    15     6    36 1   
    16     6    37 1   
    17     7    11 1   
    18     7    16 2   
    19     8    38 1   
    20     8    39 1   
    21     9    18 ar  
    22     9    19 ar  
    23    10    26 1   
    24    10    27 1   
    25    11    13 ar  
    26    11    22 ar  
    27    12    22 ar  
    28    12    23 ar  
    29    13    24 ar  
    30    14    16 1   
    31    14    30 1   
    32    14    59 1   
    33    15    16 1   
    34    15    66 2   
    35    17    18 ar  
    36    17    21 ar  
    37    17    23 1   
    38    18    40 1   
    39    19    20 ar  
    40    19    65 1   
    41    20    21 ar  
    42    20    41 1   
    43    21    42 1   
    44    22    43 1   
    45    23    24 ar  
    46    24    44 1   
    47    25    45 1   
    48    25    46 1   
    49    25    47 1   
    50    25    65 1   
    51    26    50 1   
    52    26    51 1   
    53    26    64 1   
    54    27    28 1   
    55    27    52 1   
    56    27    53 1   
    57    28    29 1   
    58    28    54 1   
    59    28    55 1   
    60    29    56 1   
    61    29    57 1   
    62    29    58 1   
    63    30    31 1   
    64    30    60 1   
    65    30    61 1   
    66    31    62 1   
    67    31    63 1   
    68    48    64 1   
    69    49    64 1   
@<TRIPOS>SUBSTRUCTURE
     1 TGE         1 TEMP              0 ****  ****    0 ROOT
