@<TRIPOS>MOLECULE
TGF
   85    87     1     0     0
SMALL
abcg2


@<TRIPOS>ATOM
      1 N1          -1.3760   145.2910   -24.6740 nc         1 TGF      -0.774300
      2 C2          -0.2050   145.7770   -24.9950 cd         1 TGF       0.723800
      3 NA2          0.2790   145.5760   -26.2280 nv         1 TGF      -1.069200
      4 N3           0.5630   146.4670   -24.1200 ns         1 TGF      -0.448400
      5 C4           0.1990   146.7200   -22.7900 c          1 TGF       0.601200
      6 O4           0.9180   147.4290   -22.0980 o          1 TGF      -0.496000
      7 C4A         -1.0080   146.0790   -22.4220 cd         1 TGF      -0.223600
      8 N5          -1.5480   146.2030   -21.1250 n          1 TGF      -0.276000
      9 C6          -2.9880   146.3930   -21.0830 c6         1 TGF       0.072700
     10 C7          -3.6330   145.2120   -21.8090 c6         1 TGF       0.211800
     11 N8          -3.0140   145.0200   -23.1010 nu         1 TGF      -0.829200
     12 C8A         -1.7790   145.4560   -23.3950 cc         1 TGF       0.413600
     13 C9          -3.4130   147.7330   -21.6740 c3         1 TGF       0.243800
     14 N10         -2.7070   148.8160   -21.0420 nu         1 TGF      -0.967200
     15 C11         -3.9140   152.8210   -21.3850 ca         1 TGF      -0.196600
     16 C12         -2.9600   152.4140   -20.4460 ca         1 TGF      -0.032000
     17 C13         -2.5590   151.1010   -20.3480 ca         1 TGF      -0.213000
     18 C14         -3.0990   150.1110   -21.1900 ca         1 TGF       0.328000
     19 C15         -4.0330   150.5220   -22.1570 ca         1 TGF      -0.213000
     20 C16         -4.4300   151.8450   -22.2340 ca         1 TGF      -0.032000
     21 O           -5.5180   154.4410   -22.0360 o          1 TGF      -0.715100
     22 NG1         -3.7760   155.1500   -20.7900 ns         1 TGF      -0.449900
     23 CA1         -4.2100   156.5160   -20.6090 c3         1 TGF      -0.034300
     24 CB1         -5.2540   156.6350   -19.4880 c3         1 TGF      -0.044400
     25 CG1         -4.6980   156.2640   -18.1160 c3         1 TGF      -0.166400
     26 CT1         -2.9820   157.4090   -20.3020 c          1 TGF       0.715000
     27 O11         -1.9000   156.8270   -20.0880 o          1 TGF      -0.740000
     28 O21         -3.2030   158.6320   -20.2730 o          1 TGF      -0.740000
     29 C5A         -0.8890   145.7610   -20.0280 c          1 TGF       0.622900
     30 O5B          0.2350   145.3030   -20.0180 o          1 TGF      -0.630100
     31 CD1         -5.7700   156.1460   -17.0490 c          1 TGF       0.608100
     32 NG2         -5.6060   155.1310   -16.1910 ns         1 TGF      -0.466900
     33 CA2         -6.5300   154.8830   -15.1060 c3         1 TGF      -0.007300
     34 CB2         -6.4280   153.4390   -14.5910 c3         1 TGF      -0.041400
     35 CG2         -5.3300   153.1030   -13.5700 c3         1 TGF      -0.148400
     36 CT2         -6.4450   155.9020   -13.9360 c          1 TGF       0.721000
     37 CD2         -3.9220   153.0820   -14.1240 c          1 TGF       0.591100
     38 NG3         -3.5750   151.9340   -14.7390 ns         1 TGF      -0.479900
     39 CA3         -2.4070   151.8550   -15.5860 c3         1 TGF      -0.041300
     40 CB3         -2.1590   150.4170   -16.0530 c3         1 TGF      -0.048400
     41 CG3         -3.2980   149.7850   -16.8480 c3         1 TGF      -0.197400
     42 CD3         -2.9060   148.5270   -17.6460 c          1 TGF       0.709000
     43 OED         -1.7820   148.5410   -18.2080 o          1 TGF      -0.781500
     44 OEN         -3.7520   147.6170   -17.7210 o          1 TGF      -0.781500
     45 CT3         -2.5030   152.8030   -16.8080 c          1 TGF       0.725000
     46 HA21        -0.3470   145.2010   -26.9210 hn         1 TGF       0.483000
     47 HA22         1.0710   146.0960   -26.5680 hn         1 TGF       0.483000
     48 H3           1.4420   146.8640   -24.4260 hn         1 TGF       0.307500
     49 H6          -3.3050   146.3660   -20.0380 h1         1 TGF       0.134700
     50 H71         -4.7010   145.3840   -21.9500 h1         1 TGF       0.037700
     51 H72         -3.5280   144.3190   -21.1860 h1         1 TGF       0.037700
     52 H8          -3.5490   144.6010   -23.8450 hn         1 TGF       0.480000
     53 H91         -4.4980   147.8160   -21.5280 h1         1 TGF       0.014700
     54 H92         -3.2470   147.7520   -22.7560 h1         1 TGF       0.014700
     55 H10         -2.2430   148.6040   -20.1600 hn         1 TGF       0.548000
     56 H12         -2.5340   153.1050   -19.7300 ha         1 TGF       0.136000
     57 H13         -1.8510   150.8150   -19.5810 ha         1 TGF       0.114500
     58 H15         -4.4700   149.8050   -22.8400 ha         1 TGF       0.114500
     59 H16         -5.1730   152.1190   -22.9730 ha         1 TGF       0.136000
     60 HG1         -2.8440   154.9690   -20.4450 hn         1 TGF       0.355500
     61 HA1         -4.6710   156.8710   -21.5350 h1         1 TGF       0.023700
     62 HB11        -6.1010   155.9910   -19.7360 hc         1 TGF       0.028200
     63 HB12        -5.6380   157.6560   -19.4780 hc         1 TGF       0.028200
     64 HG11        -3.9960   157.0370   -17.7820 hc         1 TGF       0.086700
     65 HG12        -4.1290   155.3360   -18.1700 hc         1 TGF       0.086700
     66 H5A         -1.4910   145.8790   -19.1150 h5         1 TGF       0.071200
     67 HG2         -4.8560   154.4660   -16.3730 hn         1 TGF       0.374500
     68 HA2         -7.5440   154.9760   -15.5120 h1         1 TGF       0.020700
     69 HB21        -6.3600   152.7570   -15.4440 hc         1 TGF       0.018700
     70 HB22        -7.3770   153.2100   -14.1070 hc         1 TGF       0.018700
     71 HG21        -5.5620   152.1160   -13.1600 hc         1 TGF       0.031200
     72 HG22        -5.3690   153.8020   -12.7340 hc         1 TGF       0.031200
     73 HG3         -4.3050   151.2550   -14.8880 hn         1 TGF       0.284500
     74 HA3         -1.5360   152.1600   -15.0000 h1         1 TGF       0.037700
     75 HB31        -1.9290   149.7940   -15.1840 hc         1 TGF       0.024700
     76 HB32        -1.2580   150.4300   -16.6650 hc         1 TGF       0.024700
     77 HG31        -3.6820   150.5050   -17.5810 hc         1 TGF       0.039200
     78 HG32        -4.1420   149.5380   -16.1980 hc         1 TGF       0.039200
     79 O12         -7.3450   155.7700   -13.0800 o          1 TGF      -0.751000
     80 OEB         -6.7110   156.9350   -16.9940 o          1 TGF      -0.713100
     81 O22         -5.5260   156.7360   -13.9380 o          1 TGF      -0.751000
     82 O13         -1.4380   153.0170   -17.4110 o          1 TGF      -0.733500
     83 OEC         -3.1490   154.0240   -14.0080 o          1 TGF      -0.598100
     84 O23         -3.6370   153.2380   -17.1080 o          1 TGF      -0.733500
     85 C           -4.4680   154.2020   -21.4390 c          1 TGF       0.614700
@<TRIPOS>BOND
     1     1     2 2   
     2     1    12 1   
     3     2     3 1   
     4     2     4 1   
     5     3    46 1   
     6     3    47 1   
     7     4     5 1   
     8     4    48 1   
     9     5     6 2   
    10     5     7 1   
    11     7     8 1   
    12     7    12 2   
    13     8     9 1   
    14     8    29 1   
    15     9    10 1   
    16     9    13 1   
    17     9    49 1   
    18    10    11 1   
    19    10    50 1   
    20    10    51 1   
    21    11    12 1   
    22    11    52 1   
    23    13    14 1   
    24    13    53 1   
    25    13    54 1   
    26    14    18 1   
    27    14    55 1   
    28    15    16 ar  
    29    15    20 ar  
    30    15    85 1   
    31    16    17 ar  
    32    16    56 1   
    33    17    18 ar  
    34    17    57 1   
    35    18    19 ar  
    36    19    20 ar  
    37    19    58 1   
    38    20    59 1   
    39    21    85 2   
    40    22    23 1   
    41    22    60 1   
    42    22    85 1   
    43    23    24 1   
    44    23    26 1   
    45    23    61 1   
    46    24    25 1   
    47    24    62 1   
    48    24    63 1   
    49    25    31 1   
    50    25    64 1   
    51    25    65 1   
    52    26    27 1   
    53    26    28 1   
    54    29    30 2   
    55    29    66 1   
    56    31    32 1   
    57    31    80 2   
    58    32    33 1   
    59    32    67 1   
    60    33    34 1   
    61    33    36 1   
    62    33    68 1   
    63    34    35 1   
    64    34    69 1   
    65    34    70 1   
    66    35    37 1   
    67    35    71 1   
    68    35    72 1   
    69    36    79 1   
    70    36    81 1   
    71    37    38 1   
    72    37    83 2   
    73    38    39 1   
    74    38    73 1   
    75    39    40 1   
    76    39    45 1   
    77    39    74 1   
    78    40    41 1   
    79    40    75 1   
    80    40    76 1   
    81    41    42 1   
    82    41    77 1   
    83    41    78 1   
    84    42    43 1   
    85    42    44 1   
    86    45    82 1   
    87    45    84 1   
@<TRIPOS>SUBSTRUCTURE
     1 TGF         1 TEMP              0 ****  ****    0 ROOT
