@<TRIPOS>MOLECULE
TGF
   85    87     1     0     0
SMALL
No Charge or Current Charge


@<TRIPOS>ATOM
      1 N1          -2.2090   144.7090   -24.6410 nc         1 TGF      -0.774300
      2 C2          -1.1980   144.9530   -25.4120 cd         1 TGF       0.723800
      3 NA2         -1.3070   144.4830   -26.6390 nv         1 TGF      -1.069200
      4 N3          -0.1090   145.6580   -25.1160 ns         1 TGF      -0.448400
      5 C4           0.1040   146.2120   -23.9020 c          1 TGF       0.601200
      6 O4           1.0800   146.9200   -23.7130 o          1 TGF      -0.496000
      7 C4A         -0.9740   145.9130   -22.9120 cd         1 TGF      -0.223600
      8 N5          -1.0110   146.3240   -21.5480 n          1 TGF      -0.276000
      9 C6          -2.3560   146.4860   -20.9010 c6         1 TGF       0.072700
     10 C7          -3.2840   145.2800   -21.2370 c6         1 TGF       0.211800
     11 N8          -3.1750   144.9240   -22.6590 nu         1 TGF      -0.829200
     12 C8A         -2.0760   145.2120   -23.3870 cc         1 TGF       0.413600
     13 C9          -3.0380   147.8380   -21.2750 c3         1 TGF       0.243800
     14 N10         -2.3120   149.0110   -20.7580 nu         1 TGF      -0.967200
     15 C11         -3.4190   153.0660   -21.1540 ca         1 TGF      -0.196600
     16 C12         -2.3920   152.6660   -20.2660 ca         1 TGF      -0.032000
     17 C13         -2.0250   151.3150   -20.1660 ca         1 TGF      -0.213000
     18 C14         -2.6620   150.3420   -20.9430 ca         1 TGF       0.328000
     19 C15         -3.6530   150.7310   -21.8580 ca         1 TGF      -0.213000
     20 C16         -4.0310   152.0810   -21.9610 ca         1 TGF      -0.032000
     21 O           -4.7900   154.8360   -22.0090 o          1 TGF      -0.715100
     22 NG1         -3.2990   155.4090   -20.3930 ns         1 TGF      -0.449900
     23 CA1         -3.7220   156.8190   -20.2110 c3         1 TGF      -0.034300
     24 CB1         -4.9280   156.9170   -19.2400 c3         1 TGF      -0.044400
     25 CG1         -4.5940   156.6560   -17.7470 c3         1 TGF      -0.166400
     26 CT1         -2.5240   157.7300   -19.7830 c          1 TGF       0.715000
     27 O11         -1.5590   157.2170   -19.2320 o          1 TGF      -0.740000
     28 O21         -2.5510   158.9080   -20.1140 o          1 TGF      -0.740000
     29 C5A          0.1390   146.5030   -20.7330 c          1 TGF       0.622900
     30 O5B          1.2740   146.1540   -21.0480 o          1 TGF      -0.630100
     31 CD1         -5.8550   156.3820   -16.9210 c          1 TGF       0.608100
     32 NG2         -5.9350   155.1420   -16.3230 ns         1 TGF      -0.466900
     33 CA2         -7.1140   154.6700   -15.5450 c3         1 TGF      -0.007300
     34 CB2         -7.0810   153.1460   -15.2380 c3         1 TGF      -0.041400
     35 CG2         -6.2050   152.6650   -14.0470 c3         1 TGF      -0.148400
     36 CT2         -7.4290   155.5400   -14.2710 c          1 TGF       0.721000
     37 CD2         -4.7090   152.8920   -14.2840 c          1 TGF       0.591100
     38 NG3         -4.0620   151.8420   -14.8960 ns         1 TGF      -0.479900
     39 CA3         -2.7090   151.9530   -15.4850 c3         1 TGF      -0.041300
     40 CB3         -2.1230   150.5670   -15.8660 c3         1 TGF      -0.048400
     41 CG3         -2.9630   149.7420   -16.8760 c3         1 TGF      -0.197400
     42 CD3         -2.2160   148.4520   -17.2510 c          1 TGF       0.709000
     43 OED         -1.4290   148.4910   -18.1840 o          1 TGF      -0.781500
     44 OEN         -2.4140   147.4510   -16.5820 o          1 TGF      -0.781500
     45 CT3         -2.6910   152.9750   -16.6770 c          1 TGF       0.725000
     46 HA21        -2.2390   144.1530   -26.8540 hn         1 TGF       0.483000
     47 HA22        -0.8480   145.0000   -27.3770 hn         1 TGF       0.483000
     48 H3           0.6030   145.8080   -25.8110 hn         1 TGF       0.307500
     49 H6          -2.2460   146.4880   -19.8080 h1         1 TGF       0.134700
     50 H71         -4.3250   145.5130   -20.9670 h1         1 TGF       0.037700
     51 H72         -2.9750   144.4190   -20.6260 h1         1 TGF       0.037700
     52 H8          -3.8450   144.3060   -23.1120 hn         1 TGF       0.480000
     53 H91         -4.0570   147.8430   -20.8650 h1         1 TGF       0.014700
     54 H92         -3.1150   147.9000   -22.3690 h1         1 TGF       0.014700
     55 H10         -1.8410   148.8600   -19.8460 hn         1 TGF       0.548000
     56 H12         -1.8810   153.3840   -19.6310 ha         1 TGF       0.136000
     57 H13         -1.2510   151.0250   -19.4630 ha         1 TGF       0.114500
     58 H15         -4.1540   149.9940   -22.4770 ha         1 TGF       0.114500
     59 H16         -4.8200   152.3550   -22.6590 ha         1 TGF       0.136000
     60 HG1         -2.5610   155.0620   -19.7930 hn         1 TGF       0.355500
     61 HA1         -4.0540   157.1850   -21.1910 h1         1 TGF       0.023700
     62 HB11        -5.7000   156.2080   -19.5650 hc         1 TGF       0.028200
     63 HB12        -5.3740   157.9150   -19.3290 hc         1 TGF       0.028200
     64 HG11        -4.1030   157.5450   -17.3360 hc         1 TGF       0.086700
     65 HG12        -3.9040   155.8130   -17.6600 hc         1 TGF       0.086700
     66 H5A         -0.1020   146.9370   -19.7450 h5         1 TGF       0.071200
     67 HG2         -5.1610   154.5000   -16.5010 hn         1 TGF       0.374500
     68 HA2         -7.9690   154.8140   -16.2190 h1         1 TGF       0.020700
     69 HB21        -6.7840   152.6040   -16.1450 hc         1 TGF       0.018700
     70 HB22        -8.1110   152.8320   -15.0280 hc         1 TGF       0.018700
     71 HG21        -6.3910   151.5880   -13.9520 hc         1 TGF       0.031200
     72 HG22        -6.5200   153.1790   -13.1310 hc         1 TGF       0.031200
     73 HG3         -4.6280   151.0380   -15.1380 hn         1 TGF       0.284500
     74 HA3         -2.0540   152.3750   -14.7110 h1         1 TGF       0.037700
     75 HB31        -1.9950   149.9770   -14.9500 hc         1 TGF       0.024700
     76 HB32        -1.1170   150.7170   -16.2780 hc         1 TGF       0.024700
     77 HG31        -3.0860   150.3770   -17.7590 hc         1 TGF       0.039200
     78 HG32        -3.9060   149.5000   -16.3730 hc         1 TGF       0.039200
     79 O12         -8.6010   155.6470   -13.9330 o          1 TGF      -0.751000
     80 OEB         -6.7340   157.2260   -16.7920 o          1 TGF      -0.713100
     81 O22         -6.5230   156.1160   -13.6810 o          1 TGF      -0.751000
     82 O13         -1.6220   153.5020   -16.9540 o          1 TGF      -0.733500
     83 OEC         -4.1260   153.9160   -13.9580 o          1 TGF      -0.598100
     84 O23         -3.7520   153.3040   -17.1960 o          1 TGF      -0.733500
     85 C           -3.9000   154.4990   -21.2360 c          1 TGF       0.614700
@<TRIPOS>BOND
     1     1     2 2   
     2     1    12 1   
     3     2     3 1   
     4     2     4 1   
     5     3    46 1   
     6     3    47 1   
     7     4     5 1   
     8     4    48 1   
     9     5     6 2   
    10     5     7 1   
    11     7     8 1   
    12     7    12 2   
    13     8     9 1   
    14     8    29 1   
    15     9    10 1   
    16     9    13 1   
    17     9    49 1   
    18    10    11 1   
    19    10    50 1   
    20    10    51 1   
    21    11    12 1   
    22    11    52 1   
    23    13    14 1   
    24    13    53 1   
    25    13    54 1   
    26    14    18 1   
    27    14    55 1   
    28    15    16 ar  
    29    15    20 ar  
    30    15    85 1   
    31    16    17 ar  
    32    16    56 1   
    33    17    18 ar  
    34    17    57 1   
    35    18    19 ar  
    36    19    20 ar  
    37    19    58 1   
    38    20    59 1   
    39    21    85 2   
    40    22    23 1   
    41    22    60 1   
    42    22    85 1   
    43    23    24 1   
    44    23    26 1   
    45    23    61 1   
    46    24    25 1   
    47    24    62 1   
    48    24    63 1   
    49    25    31 1   
    50    25    64 1   
    51    25    65 1   
    52    26    27 1   
    53    26    28 1   
    54    29    30 2   
    55    29    66 1   
    56    31    32 1   
    57    31    80 2   
    58    32    33 1   
    59    32    67 1   
    60    33    34 1   
    61    33    36 1   
    62    33    68 1   
    63    34    35 1   
    64    34    69 1   
    65    34    70 1   
    66    35    37 1   
    67    35    71 1   
    68    35    72 1   
    69    36    79 1   
    70    36    81 1   
    71    37    38 1   
    72    37    83 2   
    73    38    39 1   
    74    38    73 1   
    75    39    40 1   
    76    39    45 1   
    77    39    74 1   
    78    40    41 1   
    79    40    75 1   
    80    40    76 1   
    81    41    42 1   
    82    41    77 1   
    83    41    78 1   
    84    42    43 1   
    85    42    44 1   
    86    45    82 1   
    87    45    84 1   
@<TRIPOS>SUBSTRUCTURE
     1 TGF         1 TEMP              0 ****  ****    0 ROOT
