@<TRIPOS>MOLECULE
TGG
   45    44     1     0     0
SMALL
bcc


@<TRIPOS>ATOM
      1 OC1          7.5150     0.0700     0.6460 o          1 TGG      -0.858800
      2 CO1          6.4630     0.7190     0.8130 c          1 TGG       0.902600
      3 OT1          6.1750     1.4220     1.8050 o          1 TGG      -0.858800
      4 CA1          5.3870     0.6430    -0.3000 c3         1 TGG       0.011500
      5 NN1          5.8140     0.0180    -1.5420 n8         1 TGG      -0.877800
      6 CB1          4.1490    -0.0690     0.2500 c3         1 TGG      -0.041400
      7 CG1          2.9860    -0.0840    -0.7350 c3         1 TGG      -0.152400
      8 CD1          1.7930    -0.8450    -0.2110 c          1 TGG       0.665100
      9 OE1          1.8920    -1.9340     0.3420 o          1 TGG      -0.653100
     10 NN2          0.5980    -0.2600    -0.4000 ns         1 TGG      -0.541900
     11 CA2         -0.6270    -0.8980    -0.0030 c3         1 TGG       0.050700
     12 CO2         -0.8280    -2.2140    -0.7650 c          1 TGG       0.663100
     13 OC2         -0.4730    -2.3400    -1.9280 o          1 TGG      -0.671100
     14 NN3         -1.4680    -3.1550    -0.0730 ns         1 TGG      -0.535900
     15 CA3         -1.8520    -4.4360    -0.6070 c3         1 TGG      -0.039000
     16 CO3         -2.5910    -5.2750     0.4560 c          1 TGG       0.922600
     17 OC3         -2.7640    -4.7510     1.5730 o          1 TGG      -0.855300
     18 OT3         -2.9470    -6.4070     0.0860 o          1 TGG      -0.855300
     19 CB2         -1.8180     0.0090    -0.3010 c3         1 TGG       0.002700
     20 SG2         -1.6410     1.5760     0.5980 ss         1 TGG      -0.393200
     21 CD2         -3.0210     2.5550    -0.1000 c3         1 TGG      -0.036600
     22 CE2         -4.3470     1.9730     0.4240 c          1 TGG       0.927600
     23 OE2         -4.8640     1.0740    -0.2720 o          1 TGG      -0.862300
     24 OF2         -4.7840     2.4220     1.5010 o          1 TGG      -0.862300
     25 CF2         -2.7680     4.0070     0.2730 c3         1 TGG      -0.170400
     26 CH2         -1.5470     4.6260    -0.4320 c          1 TGG       0.924600
     27 OI2         -1.4400     4.4130    -1.6570 o          1 TGG      -0.874800
     28 OJ2         -0.7800     5.3220     0.2650 o          1 TGG      -0.874800
     29 HA1          5.0940     1.6730    -0.5390 h1         1 TGG       0.043700
     30 HN11         6.5660     0.5690    -1.9380 hn         1 TGG       0.311300
     31 HN12         6.2480    -0.8700    -1.3140 hn         1 TGG       0.311300
     32 HB11         4.4130    -1.0970     0.5170 hc         1 TGG       0.050200
     33 HB12         3.8440     0.4270     1.1730 hc         1 TGG       0.050200
     34 HG11         2.7050     0.9390    -0.9990 hc         1 TGG       0.055200
     35 HG12         3.3050    -0.5650    -1.6630 hc         1 TGG       0.055200
     36 HN2          0.5500     0.6400    -0.8500 hn         1 TGG       0.342500
     37 HA2         -0.6050    -1.1050     1.0730 h1         1 TGG       0.068700
     38 HN3         -1.7270    -3.0070     0.8920 hn         1 TGG       0.344500
     39 HA31        -2.5040    -4.3150    -1.4780 h1         1 TGG       0.021700
     40 HA32        -0.9750    -4.9920    -0.9540 h1         1 TGG       0.021700
     41 HB21        -1.8790     0.2140    -1.3730 h1         1 TGG       0.077700
     42 HB22        -2.7380    -0.4910    -0.0030 h1         1 TGG       0.077700
     43 HD2         -2.9630     2.4470    -1.1850 h1         1 TGG       0.064700
     44 HF21        -3.6530     4.5830    -0.0240 hc         1 TGG       0.023700
     45 HF22        -2.6870     4.1150     1.3560 hc         1 TGG       0.023700
@<TRIPOS>BOND
     1     1     2 1   
     2     2     3 1   
     3     2     4 1   
     4     4     5 1   
     5     4     6 1   
     6     4    29 1   
     7     5    30 1   
     8     5    31 1   
     9     6     7 1   
    10     6    32 1   
    11     6    33 1   
    12     7     8 1   
    13     7    34 1   
    14     7    35 1   
    15     8     9 2   
    16     8    10 1   
    17    10    11 1   
    18    10    36 1   
    19    11    12 1   
    20    11    19 1   
    21    11    37 1   
    22    12    13 2   
    23    12    14 1   
    24    14    15 1   
    25    14    38 1   
    26    15    16 1   
    27    15    39 1   
    28    15    40 1   
    29    16    17 1   
    30    16    18 1   
    31    19    20 1   
    32    19    41 1   
    33    19    42 1   
    34    20    21 1   
    35    21    22 1   
    36    21    25 1   
    37    21    43 1   
    38    22    23 1   
    39    22    24 1   
    40    25    26 1   
    41    25    44 1   
    42    25    45 1   
    43    26    27 1   
    44    26    28 1   
@<TRIPOS>SUBSTRUCTURE
     1 TGG         1 TEMP              0 ****  ****    0 ROOT
