@<TRIPOS>MOLECULE
TGG
   45    44     1     0     0
SMALL
No Charge or Current Charge


@<TRIPOS>ATOM
      1 OC1          6.3740     1.7070     1.5200 o          1 TGG      -0.753500
      2 CO1          5.7990     2.0830     0.5060 c          1 TGG       0.692000
      3 OT1          5.7190     3.2610     0.1870 o          1 TGG      -0.753500
      4 CA1          5.2600     0.9900    -0.5090 c3         1 TGG       0.011500
      5 NN1          6.2850     0.0080    -1.0230 n8         1 TGG      -0.988200
      6 CB1          4.0340     0.2500     0.0950 c3         1 TGG      -0.041400
      7 CG1          3.2500    -0.6260    -0.9170 c3         1 TGG      -0.152400
      8 CD1          2.0230    -1.2750    -0.2670 c          1 TGG       0.598100
      9 OE1          2.1110    -2.2050     0.5240 o          1 TGG      -0.653100
     10 NN2          0.8100    -0.7680    -0.6670 ns         1 TGG      -0.474900
     11 CA2         -0.5010    -1.2510    -0.1720 c3         1 TGG       0.050700
     12 CO2         -0.9460    -2.5360    -0.9320 c          1 TGG       0.596100
     13 OC2         -0.5070    -2.8620    -2.0320 o          1 TGG      -0.671100
     14 NN3         -1.8900    -3.3010    -0.2800 ns         1 TGG      -0.468900
     15 CA3         -2.4750    -4.5580    -0.8020 c3         1 TGG      -0.039000
     16 CO3         -3.3750    -5.2800     0.2460 c          1 TGG       0.712000
     17 OC3         -3.8080    -4.6360     1.1940 o          1 TGG      -0.750000
     18 OT3         -3.5860    -6.4750     0.0970 o          1 TGG      -0.750000
     19 CB2         -1.5820    -0.1510    -0.2970 c3         1 TGG       0.050600
     20 SG2         -1.1170     1.3810     0.6460 ss         1 TGG      -0.489000
     21 CD2         -2.5690     2.4910     0.2210 c3         1 TGG       0.011300
     22 CE2         -3.9480     1.8950     0.6690 c          1 TGG       0.717000
     23 OE2         -4.6690     1.4030    -0.1890 o          1 TGG      -0.757000
     24 OF2         -4.2690     1.9460     1.8500 o          1 TGG      -0.757000
     25 CF2         -2.3380     3.9320     0.7630 c3         1 TGG      -0.170400
     26 CH2         -1.3870     4.7200    -0.1550 c          1 TGG       0.714000
     27 OI2         -1.8630     5.2670    -1.1390 o          1 TGG      -0.769500
     28 OJ2         -0.2010     4.7770     0.1320 o          1 TGG      -0.769500
     29 HA1          4.8960     1.5470    -1.3840 h1         1 TGG       0.043700
     30 HN11         7.0540     0.5280    -1.4620 hn         1 TGG       0.366500
     31 HN12         6.7340    -0.4400    -0.2150 hn         1 TGG       0.366500
     32 HB11         4.3600    -0.3690     0.9400 hc         1 TGG       0.050200
     33 HB12         3.3460     0.9990     0.5070 hc         1 TGG       0.050200
     34 HG11         2.9400     0.0060    -1.7580 hc         1 TGG       0.055200
     35 HG12         3.9090    -1.4230    -1.2790 hc         1 TGG       0.055200
     36 HN2          0.8290     0.0010    -1.3250 hn         1 TGG       0.342500
     37 HA2         -0.3990    -1.5150     0.8880 h1         1 TGG       0.068700
     38 HN3         -2.2060    -2.9780     0.6300 hn         1 TGG       0.344500
     39 HA31        -3.0840    -4.3280    -1.6860 h1         1 TGG       0.021700
     40 HA32        -1.6630    -5.2350    -1.0960 h1         1 TGG       0.021700
     41 HB21        -1.7260     0.1050    -1.3550 h1         1 TGG       0.077700
     42 HB22        -2.5370    -0.5320     0.0910 h1         1 TGG       0.077700
     43 HD2         -2.6180     2.5550    -0.8740 h1         1 TGG       0.064700
     44 HF21        -3.3280     4.4030     0.7280 hc         1 TGG       0.023700
     45 HF22        -1.9350     3.8380     1.7780 hc         1 TGG       0.023700
@<TRIPOS>BOND
     1     1     2 1   
     2     2     3 1   
     3     2     4 1   
     4     4     5 1   
     5     4     6 1   
     6     4    29 1   
     7     5    30 1   
     8     5    31 1   
     9     6     7 1   
    10     6    32 1   
    11     6    33 1   
    12     7     8 1   
    13     7    34 1   
    14     7    35 1   
    15     8     9 2   
    16     8    10 1   
    17    10    11 1   
    18    10    36 1   
    19    11    12 1   
    20    11    19 1   
    21    11    37 1   
    22    12    13 2   
    23    12    14 1   
    24    14    15 1   
    25    14    38 1   
    26    15    16 1   
    27    15    39 1   
    28    15    40 1   
    29    16    17 1   
    30    16    18 1   
    31    19    20 1   
    32    19    41 1   
    33    19    42 1   
    34    20    21 1   
    35    21    22 1   
    36    21    25 1   
    37    21    43 1   
    38    22    23 1   
    39    22    24 1   
    40    25    26 1   
    41    25    44 1   
    42    25    45 1   
    43    26    27 1   
    44    26    28 1   
@<TRIPOS>SUBSTRUCTURE
     1 TGG         1 TEMP              0 ****  ****    0 ROOT
