@<TRIPOS>MOLECULE
TGH
   35    36     1     0     0
SMALL
No Charge or Current Charge


@<TRIPOS>ATOM
      1 N            3.2840     1.6820     0.4180 n8         1 TGH      -0.886800
      2 CA           4.2330     0.5100     0.3040 c3         1 TGH       0.032500
      3 C            5.7260     0.8210    -0.1510 c          1 TGH       0.930600
      4 O            5.9150     1.4090    -1.2130 o          1 TGH      -0.847800
      5 CB           3.6140    -0.6020    -0.5840 c3         1 TGH      -0.036200
      6 CG           2.2860    -1.1190    -0.0850 cc         1 TGH      -0.119400
      7 CD1          2.0790    -2.1700     0.8030 cd         1 TGH      -0.142100
      8 CD2          0.9770    -0.6270    -0.4200 ca         1 TGH      -0.082800
      9 NE1          0.6940    -2.3360     1.0320 na         1 TGH      -0.173400
     10 CE2          0.0590    -1.3730     0.2650 ca         1 TGH      -0.079200
     11 CE3          0.5880     0.3980    -1.2920 ca         1 TGH      -0.126000
     12 CZ2         -1.3230    -1.1410     0.1420 ca         1 TGH       0.132100
     13 CZ3         -0.7900     0.6600    -1.4370 ca         1 TGH      -0.142000
     14 CH2         -1.7550    -0.0900    -0.7210 ca         1 TGH       0.012600
     15 C1          -5.1640    -0.4480     0.5140 c          1 TGH       0.907600
     16 C2          -4.0400     0.6510     0.1490 c3         1 TGH       0.227300
     17 N1          -3.1060     0.2370    -0.9170 nu         1 TGH      -0.744600
     18 O1          -4.6020     1.9070    -0.2670 oh         1 TGH      -0.652800
     19 O7          -2.2020    -1.9410     0.8230 oh         1 TGH      -0.530100
     20 H1           3.2700     2.1780    -0.4790 hn         1 TGH       0.331300
     21 H2           2.3340     1.3100     0.5160 hn         1 TGH       0.331300
     22 HA           4.3100     0.0870     1.3150 h1         1 TGH       0.038700
     23 HB2          3.5090    -0.2320    -1.6110 hc         1 TGH       0.044200
     24 HB3          4.3220    -1.4380    -0.6370 hc         1 TGH       0.044200
     25 HD1          2.8130    -2.8030     1.2910 h4         1 TGH       0.148000
     26 HNE1         0.2480    -3.0210     1.6320 hn         1 TGH       0.290700
     27 H5           1.3250     0.9760    -1.8450 ha         1 TGH       0.131000
     28 HZ3         -1.1100     1.4570    -2.1050 ha         1 TGH       0.123000
     29 H21         -3.4720     0.8310     1.0710 h2         1 TGH       0.053700
     30 HN1         -3.2820     0.7350    -1.7870 hn         1 TGH       0.371800
     31 HO1         -5.5040     1.9260     0.1270 ho         1 TGH       0.430000
     32 HO7         -3.1340    -1.7140     0.5490 ho         1 TGH       0.485000
     33 OXT          6.6480     0.5380     0.6100 o          1 TGH      -0.847800
     34 O2          -4.8230    -1.6270     0.6040 o          1 TGH      -0.827300
     35 O3          -6.3160    -0.0720     0.7260 o          1 TGH      -0.827300
@<TRIPOS>BOND
     1     1     2 1   
     2     1    20 1   
     3     1    21 1   
     4     2     3 1   
     5     2     5 1   
     6     2    22 1   
     7     3     4 1   
     8     3    33 1   
     9     5     6 1   
    10     5    23 1   
    11     5    24 1   
    12     6     7 2   
    13     6     8 1   
    14     7     9 1   
    15     7    25 1   
    16     8    10 ar  
    17     8    11 ar  
    18     9    10 1   
    19     9    26 1   
    20    10    12 ar  
    21    11    13 ar  
    22    11    27 1   
    23    12    14 ar  
    24    12    19 1   
    25    13    14 ar  
    26    13    28 1   
    27    14    17 1   
    28    15    16 1   
    29    15    34 1   
    30    15    35 1   
    31    16    17 1   
    32    16    18 1   
    33    16    29 1   
    34    17    30 1   
    35    18    31 1   
    36    19    32 1   
@<TRIPOS>SUBSTRUCTURE
     1 TGH         1 TEMP              0 ****  ****    0 ROOT
