@<TRIPOS>MOLECULE
TGH
   35    36     1     0     0
SMALL
bcc


@<TRIPOS>ATOM
      1 N            3.2000     1.6780     0.6170 n8         1 TGH      -0.886800
      2 CA           4.1310     0.5910     0.3790 c3         1 TGH       0.032500
      3 C            5.4700     1.1160    -0.1850 c          1 TGH       0.930600
      4 O            5.4770     2.2550    -0.6920 o          1 TGH      -0.847800
      5 CB           3.6030    -0.5090    -0.5710 c3         1 TGH      -0.036200
      6 CG           2.3150    -1.1160    -0.1180 cc         1 TGH      -0.119400
      7 CD1          2.1640    -2.1670     0.7450 cd         1 TGH      -0.142100
      8 CD2          0.9880    -0.6830    -0.4510 ca         1 TGH      -0.082800
      9 NE1          0.8390    -2.4080     0.9740 na         1 TGH      -0.173400
     10 CE2          0.0970    -1.5210     0.2490 ca         1 TGH      -0.079200
     11 CE3          0.4800     0.3290    -1.2820 ca         1 TGH      -0.126000
     12 CZ2         -1.2860    -1.3810     0.1320 ca         1 TGH       0.132100
     13 CZ3         -0.8870     0.4780    -1.3830 ca         1 TGH      -0.142000
     14 CH2         -1.7700    -0.3680    -0.6880 ca         1 TGH       0.012600
     15 C1          -5.2830     0.0600     0.4220 c          1 TGH       0.907600
     16 C2          -3.8380     0.5750     0.2030 c3         1 TGH       0.227300
     17 N1          -3.1810    -0.2900    -0.7520 nu         1 TGH      -0.744600
     18 O1          -3.8530     1.9230    -0.1680 oh         1 TGH      -0.652800
     19 O7          -2.1220    -2.2030     0.7930 oh         1 TGH      -0.530100
     20 H1           3.1790     2.2730    -0.2010 hn         1 TGH       0.331300
     21 H2           2.2630     1.3130     0.7410 hn         1 TGH       0.331300
     22 HA           4.3390     0.1030     1.3380 h1         1 TGH       0.038700
     23 HB2          3.4790    -0.0810    -1.5720 hc         1 TGH       0.044200
     24 HB3          4.3660    -1.2860    -0.6590 hc         1 TGH       0.044200
     25 HD1          2.9190    -2.7740     1.2210 h4         1 TGH       0.148000
     26 HNE1         0.4780    -3.1690     1.5240 hn         1 TGH       0.290700
     27 H5           1.1490     0.9830    -1.8260 ha         1 TGH       0.131000
     28 HZ3         -1.3070     1.2550    -2.0110 ha         1 TGH       0.123000
     29 H21         -3.2880     0.4650     1.1470 h2         1 TGH       0.053700
     30 HN1         -3.5300    -0.1520    -1.6910 hn         1 TGH       0.371800
     31 HO1         -4.8020     2.1080    -0.2870 ho         1 TGH       0.430000
     32 HO7         -3.0240    -1.9420     0.5220 ho         1 TGH       0.485000
     33 OXT          6.4340     0.3260    -0.1240 o          1 TGH      -0.847800
     34 O2          -5.4020    -1.1060     0.8300 o          1 TGH      -0.827300
     35 O3          -6.1880     0.8830     0.1640 o          1 TGH      -0.827300
@<TRIPOS>BOND
     1     1     2 1   
     2     1    20 1   
     3     1    21 1   
     4     2     3 1   
     5     2     5 1   
     6     2    22 1   
     7     3     4 1   
     8     3    33 1   
     9     5     6 1   
    10     5    23 1   
    11     5    24 1   
    12     6     7 2   
    13     6     8 1   
    14     7     9 1   
    15     7    25 1   
    16     8    10 ar  
    17     8    11 ar  
    18     9    10 1   
    19     9    26 1   
    20    10    12 ar  
    21    11    13 ar  
    22    11    27 1   
    23    12    14 ar  
    24    12    19 1   
    25    13    14 ar  
    26    13    28 1   
    27    14    17 1   
    28    15    16 1   
    29    15    34 1   
    30    15    35 1   
    31    16    17 1   
    32    16    18 1   
    33    16    29 1   
    34    17    30 1   
    35    18    31 1   
    36    19    32 1   
@<TRIPOS>SUBSTRUCTURE
     1 TGH         1 TEMP              0 ****  ****    0 ROOT
