@<TRIPOS>MOLECULE
TGI
   49    51     1     0     0
SMALL
No Charge or Current Charge


@<TRIPOS>ATOM
      1 C12        109.5930   105.8450   106.6450 c6         1 TGI       0.172800
      2 C13        108.1830   105.2400   106.8820 c6         1 TGI      -0.112400
      3 C14        107.6780   104.5020   105.6170 c6         1 TGI      -0.058400
      4 C15        108.7320   103.4740   105.1160 c6         1 TGI      -0.214700
      5 C16        110.1140   104.1560   104.9430 c6         1 TGI       0.172800
      6 C17        108.3020   102.7790   103.8090 c          1 TGI       0.714000
      7 C02        115.1040   105.1880   104.1960 cc         1 TGI      -0.078300
      8 C03        115.1910   103.9030   104.6860 cd         1 TGI      -0.152800
      9 C05        117.3320   104.7020   103.6370 cd         1 TGI      -0.248000
     10 C06        116.3260   105.6290   103.6210 cc         1 TGI      -0.120500
     11 C07        114.1070   103.1100   105.2720 cf         1 TGI       0.014600
     12 C08        113.3250   103.5990   106.2640 c2         1 TGI      -0.141200
     13 C09        112.1360   102.9120   106.9150 c3         1 TGI      -0.051200
     14 C20        113.9240   101.7700   104.7110 cd         1 TGI      -0.152800
     15 C21        113.5350   101.4750   103.4250 cc         1 TGI      -0.078300
     16 C22        113.4180   100.0770   103.2050 cc         1 TGI      -0.120500
     17 C23        113.6980    99.3020   104.2980 cd         1 TGI      -0.248000
     18 C25        113.2480   102.4710   102.3320 c3         1 TGI      -0.034800
     19 N11        110.5780   104.8200   106.2010 n3         1 TGI      -0.740600
     20 O18        108.1470   103.4630   102.8080 o          1 TGI      -0.738500
     21 O19        108.1330   101.5690   103.8320 o          1 TGI      -0.738500
     22 S04        116.7860   103.1890   104.3680 ss         1 TGI       0.159500
     23 S24        114.1240   100.3040   105.6920 ss         1 TGI       0.159500
     24 H1         109.9380   106.3360   107.5670 h1         1 TGI       0.030700
     25 H2         109.5120   106.6330   105.8810 h1         1 TGI       0.030700
     26 H3         108.2040   104.5490   107.7350 hc         1 TGI       0.021700
     27 H4         107.4790   106.0390   107.1500 hc         1 TGI       0.021700
     28 H5         106.7270   103.9960   105.8320 hc         1 TGI       0.040700
     29 H6         107.4710   105.2390   104.8290 hc         1 TGI       0.040700
     30 H7         108.8240   102.6880   105.8780 hc         1 TGI       0.032700
     31 H8         110.0360   104.9070   104.1420 h1         1 TGI       0.059200
     32 H9         110.8460   103.4150   104.5900 h1         1 TGI       0.059200
     33 H10        113.9340   106.8230   103.4000 hc         1 TGI       0.049367
     34 H11        112.9690   105.5040   104.0750 hc         1 TGI       0.049367
     35 H12        113.8150   106.6260   105.1570 hc         1 TGI       0.049367
     36 H13        118.3430   104.7980   103.2590 h4         1 TGI       0.139500
     37 H14        116.4360   106.6230   103.1970 ha         1 TGI       0.129000
     38 H15        113.5220   104.6010   106.6410 ha         1 TGI       0.167000
     39 H16        111.7230   102.1410   106.2550 hc         1 TGI       0.055200
     40 H17        112.4600   102.3910   107.8230 hc         1 TGI       0.055200
     41 H18        111.3540   104.4930   108.1410 h1         1 TGI       0.020200
     42 H19        110.1480   103.3070   107.6540 h1         1 TGI       0.020200
     43 H20        113.1250    99.6680   102.2420 ha         1 TGI       0.129000
     44 H21        113.6780    98.2220   104.3830 h4         1 TGI       0.139500
     45 H22        112.7380   102.0010   101.4830 hc         1 TGI       0.049367
     46 H23        112.6060   103.2800   102.7000 hc         1 TGI       0.049367
     47 H24        114.1770   102.9200   101.9620 hc         1 TGI       0.049367
     48 C10        111.0000   103.8950   107.2900 c3         1 TGI       0.184800
     49 C01        113.8900   106.0830   104.2080 c3         1 TGI      -0.034800
@<TRIPOS>BOND
     1     1     2 1   
     2     1    19 1   
     3     1    24 1   
     4     1    25 1   
     5     2     3 1   
     6     2    26 1   
     7     2    27 1   
     8     3     4 1   
     9     3    28 1   
    10     3    29 1   
    11     4     5 1   
    12     4     6 1   
    13     4    30 1   
    14     5    19 1   
    15     5    31 1   
    16     5    32 1   
    17     6    20 1   
    18     6    21 1   
    19     7     8 2   
    20     7    10 1   
    21     7    49 1   
    22     8    11 1   
    23     8    22 1   
    24     9    10 2   
    25     9    22 1   
    26     9    36 1   
    27    10    37 1   
    28    11    12 2   
    29    11    14 1   
    30    12    13 1   
    31    12    38 1   
    32    13    39 1   
    33    13    40 1   
    34    13    48 1   
    35    14    15 2   
    36    14    23 1   
    37    15    16 1   
    38    15    18 1   
    39    16    17 2   
    40    16    43 1   
    41    17    23 1   
    42    17    44 1   
    43    18    45 1   
    44    18    46 1   
    45    18    47 1   
    46    19    48 1   
    47    33    49 1   
    48    34    49 1   
    49    35    49 1   
    50    41    48 1   
    51    42    48 1   
@<TRIPOS>SUBSTRUCTURE
     1 TGI         1 TEMP              0 ****  ****    0 ROOT
