@<TRIPOS>MOLECULE
TGI
   49    51     1     0     0
SMALL
abcg2


@<TRIPOS>ATOM
      1 C12        109.6750   105.7370   106.1190 c6         1 TGI       0.172800
      2 C13        108.2660   105.2220   106.4390 c6         1 TGI      -0.112400
      3 C14        107.8120   104.1970   105.3970 c6         1 TGI      -0.058400
      4 C15        108.8630   103.0870   105.2170 c6         1 TGI      -0.214700
      5 C16        110.2230   103.7270   104.9200 c6         1 TGI       0.172800
      6 C17        108.4030   102.0840   104.1410 c          1 TGI       0.714000
      7 C02        115.2500   105.3320   104.4780 cc         1 TGI      -0.078300
      8 C03        115.0990   103.9690   104.6320 cd         1 TGI      -0.152800
      9 C05        117.1810   104.5740   103.4000 cd         1 TGI      -0.248000
     10 C06        116.4490   105.6610   103.7770 cc         1 TGI      -0.120500
     11 C07        114.0240   103.2060   105.2790 cf         1 TGI       0.014600
     12 C08        113.4110   103.6590   106.3850 c2         1 TGI      -0.141200
     13 C09        112.2220   103.0620   107.0630 c3         1 TGI      -0.051200
     14 C20        113.6590   101.9260   104.6320 cd         1 TGI      -0.152800
     15 C21        113.1700   101.7320   103.3620 cc         1 TGI      -0.078300
     16 C22        112.9690   100.3490   103.0700 cc         1 TGI      -0.120500
     17 C23        113.3170    99.5200   104.0960 cd         1 TGI      -0.248000
     18 C25        112.8790   102.8340   102.3900 c3         1 TGI      -0.034800
     19 N11        110.6700   104.6760   105.9460 n3         1 TGI      -0.740600
     20 O18        108.8350   102.2330   102.9670 o          1 TGI      -0.738500
     21 O19        107.5940   101.1940   104.5170 o          1 TGI      -0.738500
     22 S04        116.4200   103.1120   103.8840 ss         1 TGI       0.159500
     23 S24        113.8910   100.4110   105.4500 ss         1 TGI       0.159500
     24 H1         110.0240   106.4160   106.9010 h1         1 TGI       0.030700
     25 H2         109.6360   106.3070   105.1840 h1         1 TGI       0.030700
     26 H3         108.2570   104.7630   107.4320 hc         1 TGI       0.021700
     27 H4         107.5710   106.0660   106.4740 hc         1 TGI       0.021700
     28 H5         106.8500   103.7610   105.6780 hc         1 TGI       0.040700
     29 H6         107.6700   104.7010   104.4330 hc         1 TGI       0.040700
     30 H7         108.9280   102.5310   106.1570 hc         1 TGI       0.032700
     31 H8         110.1530   104.2730   103.9760 h1         1 TGI       0.059200
     32 H9         110.9840   102.9620   104.7810 h1         1 TGI       0.059200
     33 H10        114.3100   107.2390   104.2580 hc         1 TGI       0.049367
     34 H11        113.2530   105.9870   104.9390 hc         1 TGI       0.049367
     35 H12        114.4930   106.7340   105.9360 hc         1 TGI       0.049367
     36 H13        118.1120   104.5500   102.8560 h4         1 TGI       0.139500
     37 H14        116.7370   106.6800   103.5500 ha         1 TGI       0.129000
     38 H15        113.7800   104.5780   106.8270 ha         1 TGI       0.167000
     39 H16        111.8790   102.1740   106.5350 hc         1 TGI       0.055200
     40 H17        112.4940   102.7390   108.0740 hc         1 TGI       0.055200
     41 H18        111.4080   104.8880   107.8620 h1         1 TGI       0.020200
     42 H19        110.2530   103.5680   107.7390 h1         1 TGI       0.020200
     43 H20        112.5730    99.9940   102.1270 ha         1 TGI       0.129000
     44 H21        113.2610    98.4440   104.1360 h4         1 TGI       0.139500
     45 H22        111.9150   102.6730   101.9030 hc         1 TGI       0.049367
     46 H23        112.8540   103.8030   102.8840 hc         1 TGI       0.049367
     47 H24        113.6420   102.8740   101.6080 hc         1 TGI       0.049367
     48 C10        111.0770   104.0720   107.2130 c3         1 TGI       0.184800
     49 C01        114.2710   106.3770   104.9260 c3         1 TGI      -0.034800
@<TRIPOS>BOND
     1     1     2 1   
     2     1    19 1   
     3     1    24 1   
     4     1    25 1   
     5     2     3 1   
     6     2    26 1   
     7     2    27 1   
     8     3     4 1   
     9     3    28 1   
    10     3    29 1   
    11     4     5 1   
    12     4     6 1   
    13     4    30 1   
    14     5    19 1   
    15     5    31 1   
    16     5    32 1   
    17     6    20 1   
    18     6    21 1   
    19     7     8 2   
    20     7    10 1   
    21     7    49 1   
    22     8    11 1   
    23     8    22 1   
    24     9    10 2   
    25     9    22 1   
    26     9    36 1   
    27    10    37 1   
    28    11    12 2   
    29    11    14 1   
    30    12    13 1   
    31    12    38 1   
    32    13    39 1   
    33    13    40 1   
    34    13    48 1   
    35    14    15 2   
    36    14    23 1   
    37    15    16 1   
    38    15    18 1   
    39    16    17 2   
    40    16    43 1   
    41    17    23 1   
    42    17    44 1   
    43    18    45 1   
    44    18    46 1   
    45    18    47 1   
    46    19    48 1   
    47    33    49 1   
    48    34    49 1   
    49    35    49 1   
    50    41    48 1   
    51    42    48 1   
@<TRIPOS>SUBSTRUCTURE
     1 TGI         1 TEMP              0 ****  ****    0 ROOT
