@<TRIPOS>MOLECULE
TGJ
   23    22     1     0     0
SMALL
No Charge or Current Charge


@<TRIPOS>ATOM
      1 C1           3.1430     1.1820     0.5880 c3         1 TGJ      -0.189100
      2 C2           2.4330     0.1930    -0.3410 c          1 TGJ       0.555100
      3 C6          -2.7280     0.2420    -0.7080 c3         1 TGJ       0.126600
      4 O2           3.0210    -0.2930    -1.3030 o          1 TGJ      -0.525100
      5 C3           1.0920    -0.4170     0.1710 c3         1 TGJ       0.043300
      6 O3           1.0240    -1.8530    -0.0730 oh         1 TGJ      -0.695000
      7 C4          -0.1390     0.2940    -0.4680 c3         1 TGJ       0.111300
      8 O4          -0.0350     1.7140    -0.2830 oh         1 TGJ      -0.715000
      9 C5          -1.4980    -0.1550     0.1510 c3         1 TGJ       0.140300
     10 O5          -1.6560     0.4460     1.4530 oh         1 TGJ      -0.712000
     11 H1           3.1660     0.7650     1.6010 hc         1 TGJ       0.064367
     12 H2           4.1510     1.4360     0.2420 hc         1 TGJ       0.064367
     13 H3           2.5170     2.0710     0.7170 hc         1 TGJ       0.064367
     14 H4          -2.6890     1.3150    -0.9400 h1         1 TGJ       0.030700
     15 H5          -2.6920    -0.3060    -1.6590 h1         1 TGJ       0.030700
     16 H6           1.0560    -0.2270     1.2530 h1         1 TGJ       0.098700
     17 H7           1.5870    -2.0430    -0.8640 ho         1 TGJ       0.517000
     18 H8          -0.1460     0.0530    -1.5410 h1         1 TGJ       0.082700
     19 H9          -0.5730     1.8750     0.5340 ho         1 TGJ       0.505000
     20 H10         -1.5000    -1.2520     0.2300 h1         1 TGJ       0.100700
     21 H11         -2.6290     0.3830     1.6200 ho         1 TGJ       0.505000
     22 H12         -4.6940     0.1280    -0.5930 ho         1 TGJ       0.507000
     23 O6          -3.9380    -0.0700     0.0100 oh         1 TGJ      -0.713000
@<TRIPOS>BOND
     1     1     2 1   
     2     1    11 1   
     3     1    12 1   
     4     1    13 1   
     5     2     4 2   
     6     2     5 1   
     7     3     9 1   
     8     3    14 1   
     9     3    15 1   
    10     3    23 1   
    11     5     6 1   
    12     5     7 1   
    13     5    16 1   
    14     6    17 1   
    15     7     8 1   
    16     7     9 1   
    17     7    18 1   
    18     8    19 1   
    19     9    10 1   
    20     9    20 1   
    21    10    21 1   
    22    22    23 1   
@<TRIPOS>SUBSTRUCTURE
     1 TGJ         1 TEMP              0 ****  ****    0 ROOT
