@<TRIPOS>MOLECULE
TGJ
   23    22     1     0     0
SMALL
bcc


@<TRIPOS>ATOM
      1 C1           2.9870     1.2330     0.5430 c3         1 TGJ      -0.189100
      2 C2           2.3200     0.1510    -0.2440 c          1 TGJ       0.555100
      3 C6          -2.6510     0.2450    -0.7240 c3         1 TGJ       0.103400
      4 O2           2.7770    -0.2910    -1.2740 o          1 TGJ      -0.525100
      5 C3           1.0250    -0.4470     0.3050 c3         1 TGJ       0.020100
      6 O3           0.9980    -1.8350     0.1210 oh         1 TGJ      -0.572800
      7 C4          -0.1630     0.2390    -0.4010 c3         1 TGJ       0.088100
      8 O4          -0.0420     1.6410    -0.3420 oh         1 TGJ      -0.592800
      9 C5          -1.5070    -0.2520     0.1420 c3         1 TGJ       0.117100
     10 O5          -1.6560     0.1140     1.4990 oh         1 TGJ      -0.589800
     11 H1           3.5940     0.7560     1.3190 hc         1 TGJ       0.064367
     12 H2           3.6440     1.8370    -0.0790 hc         1 TGJ       0.064367
     13 H3           2.2710     1.8700     1.0580 hc         1 TGJ       0.064367
     14 H4          -2.6840     1.3430    -0.6970 h1         1 TGJ       0.030700
     15 H5          -2.4480    -0.0410    -1.7640 h1         1 TGJ       0.030700
     16 H6           0.9640    -0.2650     1.3830 h1         1 TGJ       0.098700
     17 H7           1.2200    -2.0240    -0.7990 ho         1 TGJ       0.418000
     18 H8          -0.1050    -0.0220    -1.4640 h1         1 TGJ       0.082700
     19 H9          -0.1620     1.9230     0.5730 ho         1 TGJ       0.406000
     20 H10         -1.5040    -1.3460     0.1000 h1         1 TGJ       0.100700
     21 H11         -2.1750     0.9220     1.5610 ho         1 TGJ       0.406000
     22 H12         -4.5760     0.0490    -0.7680 ho         1 TGJ       0.408000
     23 O6          -3.8530    -0.3180    -0.2520 oh         1 TGJ      -0.590800
@<TRIPOS>BOND
     1     1     2 1   
     2     1    11 1   
     3     1    12 1   
     4     1    13 1   
     5     2     4 2   
     6     2     5 1   
     7     3     9 1   
     8     3    14 1   
     9     3    15 1   
    10     3    23 1   
    11     5     6 1   
    12     5     7 1   
    13     5    16 1   
    14     6    17 1   
    15     7     8 1   
    16     7     9 1   
    17     7    18 1   
    18     8    19 1   
    19     9    10 1   
    20     9    20 1   
    21    10    21 1   
    22    22    23 1   
@<TRIPOS>SUBSTRUCTURE
     1 TGJ         1 TEMP              0 ****  ****    0 ROOT
