@<TRIPOS>MOLECULE
TGK
   23    23     1     0     0
SMALL
No Charge or Current Charge


@<TRIPOS>ATOM
      1 C2          10.6490   -10.2710    17.4060 c6         1 TGK       0.421000
      2 O2          11.6910   -11.0010    16.7970 oh         1 TGK      -0.681000
      3 C6           8.9670    -8.6260    16.7450 c6         1 TGK       0.168600
      4 C5           7.7970    -9.5900    17.0920 c6         1 TGK       0.141300
      5 C4           8.2290   -10.5750    18.2220 c6         1 TGK       0.089300
      6 C1          11.2510    -9.4390    18.5710 c3         1 TGK      -0.160100
      7 C3           9.5490   -11.3090    17.8390 c6         1 TGK       0.089300
      8 O3           9.2600   -12.2390    16.7720 oh         1 TGK      -0.685000
      9 O4           7.1770   -11.5340    18.4690 oh         1 TGK      -0.729000
     10 O5           6.6160    -8.8790    17.5020 oh         1 TGK      -0.718000
     11 O6          10.1500    -9.3850    16.3850 os         1 TGK      -0.421000
     12 HO2         11.1790   -11.7310    16.3760 ho         1 TGK       0.516000
     13 H61          9.1860    -7.9600    17.5900 h1         1 TGK       0.062700
     14 H62          8.6820    -7.9980    15.8890 h1         1 TGK       0.062700
     15 H5           7.5760   -10.1770    16.1870 h1         1 TGK       0.067700
     16 H4           8.4150    -9.9860    19.1330 h1         1 TGK       0.050700
     17 H11         11.8080   -10.0830    19.2610 hc         1 TGK       0.051367
     18 H12         11.9460    -8.6790    18.1950 hc         1 TGK       0.051367
     19 H8          10.4830    -8.9280    19.1620 hc         1 TGK       0.051367
     20 H3           9.9110   -11.8580    18.7210 h1         1 TGK       0.026700
     21 HO3          8.3250   -12.5150    16.9390 ho         1 TGK       0.512000
     22 HO4          7.3140   -11.8980    19.3780 ho         1 TGK       0.511000
     23 HO5          6.0600    -9.5650    17.9460 ho         1 TGK       0.520000
@<TRIPOS>BOND
     1     1     2 1   
     2     1     6 1   
     3     1     7 1   
     4     1    11 1   
     5     2    12 1   
     6     3     4 1   
     7     3    11 1   
     8     3    13 1   
     9     3    14 1   
    10     4     5 1   
    11     4    10 1   
    12     4    15 1   
    13     5     7 1   
    14     5     9 1   
    15     5    16 1   
    16     6    17 1   
    17     6    18 1   
    18     6    19 1   
    19     7     8 1   
    20     7    20 1   
    21     8    21 1   
    22     9    22 1   
    23    10    23 1   
@<TRIPOS>SUBSTRUCTURE
     1 TGK         1 TEMP              0 ****  ****    0 ROOT
