@<TRIPOS>MOLECULE
TGK
   23    23     1     0     0
SMALL
abcg2


@<TRIPOS>ATOM
      1 C2          10.5710   -10.3020    17.2970 c6         1 TGK       0.421000
      2 O2          11.5720   -10.9370    16.5590 oh         1 TGK      -0.681000
      3 C6           8.9290    -8.6550    16.7880 c6         1 TGK       0.168600
      4 C5           7.7650    -9.5610    17.1710 c6         1 TGK       0.141300
      5 C4           8.2310   -10.5580    18.2210 c6         1 TGK       0.089300
      6 C1          11.1820    -9.5950    18.5070 c3         1 TGK      -0.160100
      7 C3           9.4800   -11.3020    17.7320 c6         1 TGK       0.089300
      8 O3           9.1660   -12.1310    16.6430 oh         1 TGK      -0.685000
      9 O4           7.1670   -11.4590    18.4560 oh         1 TGK      -0.729000
     10 O5           6.7350    -8.7290    17.6460 oh         1 TGK      -0.718000
     11 O6          10.0510    -9.3910    16.3630 os         1 TGK      -0.421000
     12 HO2         12.0490   -11.5450    17.1340 ho         1 TGK       0.516000
     13 H61          9.1670    -7.9950    17.6330 h1         1 TGK       0.062700
     14 H62          8.6450    -8.0170    15.9510 h1         1 TGK       0.062700
     15 H5           7.4430   -10.1170    16.2790 h1         1 TGK       0.067700
     16 H4           8.4780   -10.0060    19.1370 h1         1 TGK       0.050700
     17 H11         11.6640   -10.3200    19.1650 hc         1 TGK       0.051367
     18 H12         11.9380    -8.8820    18.1760 hc         1 TGK       0.051367
     19 H8          10.4550    -9.0540    19.1120 hc         1 TGK       0.051367
     20 H3           9.8820   -11.8930    18.5720 h1         1 TGK       0.026700
     21 HO3          8.3420   -12.5810    16.8620 ho         1 TGK       0.512000
     22 HO4          7.3190   -11.9100    19.2930 ho         1 TGK       0.511000
     23 HO5          5.9860    -9.2840    17.8820 ho         1 TGK       0.520000
@<TRIPOS>BOND
     1     1     2 1   
     2     1     6 1   
     3     1     7 1   
     4     1    11 1   
     5     2    12 1   
     6     3     4 1   
     7     3    11 1   
     8     3    13 1   
     9     3    14 1   
    10     4     5 1   
    11     4    10 1   
    12     4    15 1   
    13     5     7 1   
    14     5     9 1   
    15     5    16 1   
    16     6    17 1   
    17     6    18 1   
    18     6    19 1   
    19     7     8 1   
    20     7    20 1   
    21     8    21 1   
    22     9    22 1   
    23    10    23 1   
@<TRIPOS>SUBSTRUCTURE
     1 TGK         1 TEMP              0 ****  ****    0 ROOT
