@<TRIPOS>MOLECULE
TGL
  173   172     1     0     0
SMALL
No Charge or Current Charge


@<TRIPOS>ATOM
      1 CA1          6.1220    -2.1590     1.6930 c          1 TGL       0.595600
      2 CA2          6.1890    -1.0760     2.7720 c3         1 TGL      -0.137400
      3 CA3          5.0330    -1.2170     3.7890 c3         1 TGL      -0.068400
      4 CA4          5.1780    -0.2650     4.9960 c3         1 TGL      -0.076400
      5 CA5          4.0930    -0.4850     6.0730 c3         1 TGL      -0.074400
      6 CA6          4.3020     0.3890     7.3290 c3         1 TGL      -0.074400
      7 CA7          3.2760     0.0940     8.4450 c3         1 TGL      -0.074400
      8 CA8          3.5300     0.9040     9.7350 c3         1 TGL      -0.074400
      9 CA9          2.5480     0.5490    10.8740 c3         1 TGL      -0.074400
     10 OA1          6.4720    -3.3170     1.8770 o          1 TGL      -0.483500
     11 CB1          3.6930    -0.1080    -1.3130 c          1 TGL       0.607100
     12 CB2          2.1870     0.1690    -1.2970 c3         1 TGL      -0.138400
     13 CB3          1.5690    -0.1450     0.0870 c3         1 TGL      -0.067400
     14 CB4          0.0440     0.1000     0.1300 c3         1 TGL      -0.076400
     15 CB5         -0.5920    -0.2230     1.5010 c3         1 TGL      -0.073400
     16 CB6         -2.1180     0.0120     1.5220 c3         1 TGL      -0.074400
     17 CB7         -2.7750    -0.3280     2.8780 c3         1 TGL      -0.074400
     18 CB8         -4.3040    -0.1080     2.8730 c3         1 TGL      -0.074400
     19 CB9         -4.9820    -0.4730     4.2120 c3         1 TGL      -0.073400
     20 C10         -6.5130    -0.2750     4.1800 c3         1 TGL      -0.074400
     21 C11         -7.2080    -0.6650     5.5020 c3         1 TGL      -0.074400
     22 C12         -8.7420    -0.4920     5.4460 c3         1 TGL      -0.074400
     23 C13         -9.4520    -0.9100     6.7530 c3         1 TGL      -0.074400
     24 C14        -10.9880    -0.7560     6.6780 c3         1 TGL      -0.074400
     25 OB1          4.5290     0.7040    -0.9410 o          1 TGL      -0.477000
     26 OG1          5.7330    -1.6540     0.4820 os         1 TGL      -0.445600
     27 CG1          5.6640    -2.5640    -0.6340 c3         1 TGL       0.154600
     28 CG2          5.3510    -1.7810    -1.9370 c3         1 TGL       0.166300
     29 OG2          3.9770    -1.3190    -1.8940 os         1 TGL      -0.450100
     30 CG3          5.5000    -2.6970    -3.1750 c3         1 TGL       0.154600
     31 OG3          5.4530    -1.8900    -4.3710 os         1 TGL      -0.445600
     32 CC1          5.6640    -2.5200    -5.5700 c          1 TGL       0.595600
     33 CC2          5.6500    -1.5420    -6.7480 c3         1 TGL      -0.137400
     34 CC3          4.3750    -1.7080    -7.6100 c3         1 TGL      -0.068400
     35 CC4          4.4000    -0.8500    -8.8940 c3         1 TGL      -0.076400
     36 CC5          3.1580    -1.0630    -9.7880 c3         1 TGL      -0.074400
     37 CC6          3.2220    -0.2660   -11.1100 c3         1 TGL      -0.074400
     38 CC7          2.0050    -0.5190   -12.0280 c3         1 TGL      -0.074400
     39 CC8          2.0980     0.2350   -13.3730 c3         1 TGL      -0.074400
     40 CC9          0.8860    -0.0230   -14.2960 c3         1 TGL      -0.074400
     41 C15          0.9980     0.7050   -15.6540 c3         1 TGL      -0.074400
     42 C16         -0.2060     0.4370   -16.5840 c3         1 TGL      -0.074400
     43 C17         -0.0870     1.1520   -17.9480 c3         1 TGL      -0.074400
     44 C18         -1.2940     0.8900   -18.8750 c3         1 TGL      -0.074400
     45 C19         -1.1730     1.6040   -20.2400 c3         1 TGL      -0.074400
     46 OC1          5.9400    -3.7070    -5.6850 o          1 TGL      -0.483500
     47 C20          2.8390     1.3100    12.1870 c3         1 TGL      -0.074400
     48 C21          1.8880     0.9140    13.3380 c3         1 TGL      -0.074400
     49 C22          2.2060     1.6390    14.6650 c3         1 TGL      -0.074400
     50 C23          1.2780     1.2150    15.8250 c3         1 TGL      -0.074400
     51 C24          1.6190     1.9140    17.1600 c3         1 TGL      -0.074400
     52 C25          0.7060     1.4710    18.3240 c3         1 TGL      -0.074400
     53 C26          1.0540     2.1570    19.6640 c3         1 TGL      -0.075400
     54 C27          0.1450     1.7010    20.8270 c3         1 TGL      -0.074400
     55 C28          0.4880     2.3800    22.1670 c3         1 TGL      -0.088600
     56 C29        -11.7080    -1.1990     7.9710 c3         1 TGL      -0.074400
     57 C30        -13.2440    -1.0660     7.8810 c3         1 TGL      -0.076400
     58 C31        -13.9700    -1.5270     9.1640 c3         1 TGL      -0.074400
     59 C32        -15.5030    -1.4040     9.0670 c3         1 TGL      -0.088100
     60 C33         -2.3750     1.3340   -21.1720 c3         1 TGL      -0.074400
     61 C34         -2.2530     2.0460   -22.5380 c3         1 TGL      -0.075400
     62 C35         -3.4540     1.7770   -23.4700 c3         1 TGL      -0.074400
     63 C36         -3.3330     2.4870   -24.8330 c3         1 TGL      -0.088600
     64 HA21         6.1190    -0.0860     2.3060 hc         1 TGL       0.073450
     65 HA22         7.1430    -1.1790     3.3020 hc         1 TGL       0.073450
     66 HA31         5.0050    -2.2520     4.1560 hc         1 TGL       0.054200
     67 HA32         4.0750    -1.0310     3.2850 hc         1 TGL       0.054200
     68 HA41         5.1400     0.7750     4.6480 hc         1 TGL       0.038200
     69 HA42         6.1650    -0.4150     5.4510 hc         1 TGL       0.038200
     70 HA51         4.0970    -1.5420     6.3710 hc         1 TGL       0.040450
     71 HA52         3.1050    -0.2770     5.6430 hc         1 TGL       0.040450
     72 HA61         4.2420     1.4490     7.0490 hc         1 TGL       0.037200
     73 HA62         5.3130     0.2180     7.7200 hc         1 TGL       0.037200
     74 HA71         3.3090    -0.9770     8.6850 hc         1 TGL       0.037700
     75 HA72         2.2650     0.3080     8.0750 hc         1 TGL       0.037700
     76 HA81         3.4550     1.9760     9.5110 hc         1 TGL       0.036950
     77 HA82         4.5570     0.7200    10.0770 hc         1 TGL       0.036950
     78 HA91         2.6010    -0.5300    11.0680 hc         1 TGL       0.037700
     79 HA92         1.5230     0.7660    10.5490 hc         1 TGL       0.037700
     80 HB21         2.0130     1.2240    -1.5370 hc         1 TGL       0.071200
     81 HB22         1.6960    -0.4810    -2.0310 hc         1 TGL       0.071200
     82 HB31         1.7750    -1.1920     0.3440 hc         1 TGL       0.053700
     83 HB32         2.0580     0.4730     0.8510 hc         1 TGL       0.053700
     84 HB41        -0.1590     1.1490    -0.1220 hc         1 TGL       0.037200
     85 HB42        -0.4400    -0.5130    -0.6410 hc         1 TGL       0.037200
     86 HB51        -0.3850    -1.2700     1.7570 hc         1 TGL       0.039700
     87 HB52        -0.1190     0.3960     2.2740 hc         1 TGL       0.039700
     88 HB61        -2.3240     1.0620     1.2770 hc         1 TGL       0.037200
     89 HB62        -2.5850    -0.5960     0.7370 hc         1 TGL       0.037200
     90 HB71        -2.5630    -1.3750     3.1280 hc         1 TGL       0.037700
     91 HB72        -2.3230     0.2880     3.6660 hc         1 TGL       0.037700
     92 HB81        -4.5160     0.9430     2.6380 hc         1 TGL       0.036700
     93 HB82        -4.7490    -0.7100     2.0710 hc         1 TGL       0.036700
     94 HB91        -4.7590    -1.5200     4.4540 hc         1 TGL       0.037700
     95 HB92        -4.5530     0.1410     5.0140 hc         1 TGL       0.037700
     96 H101        -6.7360     0.7750     3.9520 hc         1 TGL       0.036700
     97 H102        -6.9350    -0.8750     3.3630 hc         1 TGL       0.036700
     98 H111        -6.9730    -1.7110     5.7380 hc         1 TGL       0.037700
     99 H112        -6.8040    -0.0530     6.3180 hc         1 TGL       0.037700
    100 H121        -8.9790     0.5570     5.2270 hc         1 TGL       0.036700
    101 H122        -9.1400    -1.0900     4.6160 hc         1 TGL       0.036700
    102 H131        -9.2060    -1.9550     6.9770 hc         1 TGL       0.037200
    103 H132        -9.0680    -0.3040     7.5830 hc         1 TGL       0.037200
    104 H141       -11.2350     0.2920     6.4680 hc         1 TGL       0.036700
    105 H142       -11.3660    -1.3500     5.8360 hc         1 TGL       0.036700
    106 HG11         6.6260    -3.0800    -0.7580 h1         1 TGL       0.061450
    107 HG12         4.8900    -3.3270    -0.4690 h1         1 TGL       0.061450
    108 HG2          6.0640    -0.9520    -2.0440 h1         1 TGL       0.094700
    109 HG31         6.4630    -3.2230    -3.1120 h1         1 TGL       0.061450
    110 HG32         4.7010    -3.4500    -3.1760 h1         1 TGL       0.061450
    111 HC21         5.6790    -0.5120    -6.3710 hc         1 TGL       0.073450
    112 HC22         6.5280    -1.7420    -7.3730 hc         1 TGL       0.073450
    113 HC31         4.2690    -2.7650    -7.8920 hc         1 TGL       0.054200
    114 HC32         3.4920    -1.4470    -7.0100 hc         1 TGL       0.054200
    115 HC41         4.4730     0.2110    -8.6210 hc         1 TGL       0.038200
    116 HC42         5.3020    -1.0960    -9.4710 hc         1 TGL       0.038200
    117 HC51         3.0630    -2.1320   -10.0210 hc         1 TGL       0.040450
    118 HC52         2.2560    -0.7730    -9.2320 hc         1 TGL       0.040450
    119 HC61         3.2880     0.8060   -10.8840 hc         1 TGL       0.037200
    120 HC62         4.1390    -0.5370   -11.6490 hc         1 TGL       0.037200
    121 HC71         1.9210    -1.5950   -12.2260 hc         1 TGL       0.037700
    122 HC72         1.0880    -0.2160   -11.5050 hc         1 TGL       0.037700
    123 HC81         2.1820     1.3120   -13.1800 hc         1 TGL       0.036950
    124 HC82         3.0160    -0.0710   -13.8920 hc         1 TGL       0.036950
    125 HC91         0.7920    -1.1020   -14.4740 hc         1 TGL       0.037700
    126 HC92        -0.0310     0.3000   -13.7870 hc         1 TGL       0.037700
    127 H151         1.0840     1.7850   -15.4780 hc         1 TGL       0.036700
    128 H152         1.9190     0.3870   -16.1580 hc         1 TGL       0.036700
    129 H161        -0.2970    -0.6440   -16.7520 hc         1 TGL       0.037700
    130 H162        -1.1270     0.7630   -16.0840 hc         1 TGL       0.037700
    131 H171         0.0120     2.2320   -17.7800 hc         1 TGL       0.036700
    132 H172         0.8310     0.8200   -18.4490 hc         1 TGL       0.036700
    133 H181        -1.3930    -0.1900   -19.0400 hc         1 TGL       0.036950
    134 H182        -2.2110     1.2240   -18.3750 hc         1 TGL       0.036950
    135 H191        -1.0810     2.6850   -20.0750 hc         1 TGL       0.036700
    136 H192        -0.2520     1.2760   -20.7370 hc         1 TGL       0.036700
    137 H201         2.7590     2.3900    12.0050 hc         1 TGL       0.036700
    138 H202         3.8740     1.1130    12.4930 hc         1 TGL       0.036700
    139 H211         1.9510    -0.1700    13.4990 hc         1 TGL       0.037700
    140 H212         0.8530     1.1340    13.0440 hc         1 TGL       0.037700
    141 H221         2.1230     2.7230    14.5130 hc         1 TGL       0.036700
    142 H222         3.2470     1.4330    14.9450 hc         1 TGL       0.036700
    143 H231         1.3480     0.1280    15.9620 hc         1 TGL       0.036950
    144 H232         0.2380     1.4380    15.5560 hc         1 TGL       0.036950
    145 H241         1.5370     3.0000    17.0290 hc         1 TGL       0.036700
    146 H242         2.6640     1.7000    17.4210 hc         1 TGL       0.036700
    147 H251         0.7830     0.3840    18.4480 hc         1 TGL       0.036700
    148 H252        -0.3380     1.6920    18.0670 hc         1 TGL       0.036700
    149 H261         0.9710     3.2450    19.5450 hc         1 TGL       0.036700
    150 H262         2.1000     1.9420    19.9190 hc         1 TGL       0.036700
    151 H271         0.2280     0.6140    20.9470 hc         1 TGL       0.036700
    152 H272        -0.9010     1.9170    20.5760 hc         1 TGL       0.036700
    153 H281        -0.1820     2.0220    22.9580 hc         1 TGL       0.031367
    154 H282         1.5200     2.1550    22.4630 hc         1 TGL       0.031367
    155 H283         0.3780     3.4690    22.0910 hc         1 TGL       0.031367
    156 H291       -11.4490    -2.2430     8.1870 hc         1 TGL       0.036700
    157 H292       -11.3410    -0.5970     8.8120 hc         1 TGL       0.036700
    158 H301       -13.5040    -0.0200     7.6770 hc         1 TGL       0.036700
    159 H302       -13.6070    -1.6580     7.0310 hc         1 TGL       0.036700
    160 H311       -13.7100    -2.5720     9.3730 hc         1 TGL       0.036700
    161 H312       -13.6170    -0.9320    10.0160 hc         1 TGL       0.036700
    162 H321       -15.9730    -1.7420     9.9980 hc         1 TGL       0.031367
    163 H322       -15.7990    -0.3630     8.8920 hc         1 TGL       0.031367
    164 H323       -15.8910    -2.0180     8.2450 hc         1 TGL       0.031367
    165 H331        -2.4670     0.2530   -21.3380 hc         1 TGL       0.036700
    166 H332        -3.2970     1.6620   -20.6760 hc         1 TGL       0.036700
    167 H341        -2.1600     3.1270   -22.3730 hc         1 TGL       0.036700
    168 H342        -1.3310     1.7170   -23.0350 hc         1 TGL       0.036700
    169 H351        -3.5490     0.6970   -23.6390 hc         1 TGL       0.036700
    170 H352        -4.3780     2.1070   -22.9790 hc         1 TGL       0.036700
    171 H361        -4.2050     2.2640   -25.4590 hc         1 TGL       0.031367
    172 H362        -3.2740     3.5750   -24.7010 hc         1 TGL       0.031367
    173 H363        -2.4340     2.1530   -25.3660 hc         1 TGL       0.031367
@<TRIPOS>BOND
     1     1     2 1   
     2     1    10 2   
     3     1    26 1   
     4     2     3 1   
     5     2    64 1   
     6     2    65 1   
     7     3     4 1   
     8     3    66 1   
     9     3    67 1   
    10     4     5 1   
    11     4    68 1   
    12     4    69 1   
    13     5     6 1   
    14     5    70 1   
    15     5    71 1   
    16     6     7 1   
    17     6    72 1   
    18     6    73 1   
    19     7     8 1   
    20     7    74 1   
    21     7    75 1   
    22     8     9 1   
    23     8    76 1   
    24     8    77 1   
    25     9    47 1   
    26     9    78 1   
    27     9    79 1   
    28    11    12 1   
    29    11    25 2   
    30    11    29 1   
    31    12    13 1   
    32    12    80 1   
    33    12    81 1   
    34    13    14 1   
    35    13    82 1   
    36    13    83 1   
    37    14    15 1   
    38    14    84 1   
    39    14    85 1   
    40    15    16 1   
    41    15    86 1   
    42    15    87 1   
    43    16    17 1   
    44    16    88 1   
    45    16    89 1   
    46    17    18 1   
    47    17    90 1   
    48    17    91 1   
    49    18    19 1   
    50    18    92 1   
    51    18    93 1   
    52    19    20 1   
    53    19    94 1   
    54    19    95 1   
    55    20    21 1   
    56    20    96 1   
    57    20    97 1   
    58    21    22 1   
    59    21    98 1   
    60    21    99 1   
    61    22    23 1   
    62    22   100 1   
    63    22   101 1   
    64    23    24 1   
    65    23   102 1   
    66    23   103 1   
    67    24    56 1   
    68    24   104 1   
    69    24   105 1   
    70    26    27 1   
    71    27    28 1   
    72    27   106 1   
    73    27   107 1   
    74    28    29 1   
    75    28    30 1   
    76    28   108 1   
    77    30    31 1   
    78    30   109 1   
    79    30   110 1   
    80    31    32 1   
    81    32    33 1   
    82    32    46 2   
    83    33    34 1   
    84    33   111 1   
    85    33   112 1   
    86    34    35 1   
    87    34   113 1   
    88    34   114 1   
    89    35    36 1   
    90    35   115 1   
    91    35   116 1   
    92    36    37 1   
    93    36   117 1   
    94    36   118 1   
    95    37    38 1   
    96    37   119 1   
    97    37   120 1   
    98    38    39 1   
    99    38   121 1   
   100    38   122 1   
   101    39    40 1   
   102    39   123 1   
   103    39   124 1   
   104    40    41 1   
   105    40   125 1   
   106    40   126 1   
   107    41    42 1   
   108    41   127 1   
   109    41   128 1   
   110    42    43 1   
   111    42   129 1   
   112    42   130 1   
   113    43    44 1   
   114    43   131 1   
   115    43   132 1   
   116    44    45 1   
   117    44   133 1   
   118    44   134 1   
   119    45    60 1   
   120    45   135 1   
   121    45   136 1   
   122    47    48 1   
   123    47   137 1   
   124    47   138 1   
   125    48    49 1   
   126    48   139 1   
   127    48   140 1   
   128    49    50 1   
   129    49   141 1   
   130    49   142 1   
   131    50    51 1   
   132    50   143 1   
   133    50   144 1   
   134    51    52 1   
   135    51   145 1   
   136    51   146 1   
   137    52    53 1   
   138    52   147 1   
   139    52   148 1   
   140    53    54 1   
   141    53   149 1   
   142    53   150 1   
   143    54    55 1   
   144    54   151 1   
   145    54   152 1   
   146    55   153 1   
   147    55   154 1   
   148    55   155 1   
   149    56    57 1   
   150    56   156 1   
   151    56   157 1   
   152    57    58 1   
   153    57   158 1   
   154    57   159 1   
   155    58    59 1   
   156    58   160 1   
   157    58   161 1   
   158    59   162 1   
   159    59   163 1   
   160    59   164 1   
   161    60    61 1   
   162    60   165 1   
   163    60   166 1   
   164    61    62 1   
   165    61   167 1   
   166    61   168 1   
   167    62    63 1   
   168    62   169 1   
   169    62   170 1   
   170    63   171 1   
   171    63   172 1   
   172    63   173 1   
@<TRIPOS>SUBSTRUCTURE
     1 TGL         1 TEMP              0 ****  ****    0 ROOT
