@<TRIPOS>MOLECULE
TGL
  173   172     1     0     0
SMALL
bcc


@<TRIPOS>ATOM
      1 CA1          5.6630    -1.2200     1.8970 c          1 TGL       0.644600
      2 CA2          4.9890    -0.5120     3.0390 c3         1 TGL      -0.137400
      3 CA3          5.4620    -0.9680     4.4100 c3         1 TGL      -0.068400
      4 CA4          4.7390    -0.2320     5.5300 c3         1 TGL      -0.076400
      5 CA5          5.1870    -0.6770     6.9160 c3         1 TGL      -0.074400
      6 CA6          4.4650     0.0510     8.0430 c3         1 TGL      -0.074400
      7 CA7          4.9110    -0.3940     9.4300 c3         1 TGL      -0.074400
      8 CA8          4.1890     0.3330    10.5570 c3         1 TGL      -0.074400
      9 CA9          4.6340    -0.1140    11.9440 c3         1 TGL      -0.074400
     10 OA1          6.5330    -2.0470     1.9960 o          1 TGL      -0.532500
     11 CB1          2.6070    -0.3270    -1.0060 c          1 TGL       0.656100
     12 CB2          1.2560    -0.9480    -0.7820 c3         1 TGL      -0.138400
     13 CB3          0.2920    -0.0600    -0.0110 c3         1 TGL      -0.067400
     14 CB4         -1.0420    -0.7570     0.2260 c3         1 TGL      -0.076400
     15 CB5         -2.0210     0.0800     1.0380 c3         1 TGL      -0.073400
     16 CB6         -3.3380    -0.6400     1.3000 c3         1 TGL      -0.074400
     17 CB7         -4.3220     0.1720     2.1320 c3         1 TGL      -0.074400
     18 CB8         -5.6250    -0.5700     2.4040 c3         1 TGL      -0.074400
     19 CB9         -6.6170     0.2260     3.2420 c3         1 TGL      -0.073400
     20 C10         -7.9080    -0.5340     3.5180 c3         1 TGL      -0.074400
     21 C11         -8.9090     0.2500     4.3580 c3         1 TGL      -0.074400
     22 C12        -10.1920    -0.5230     4.6340 c3         1 TGL      -0.074400
     23 C13        -11.2000     0.2510     5.4740 c3         1 TGL      -0.074400
     24 C14        -12.4770    -0.5340     5.7480 c3         1 TGL      -0.074400
     25 OB1          2.8640     0.8400    -0.8700 o          1 TGL      -0.526000
     26 OG1          5.1750    -0.8170     0.7250 os         1 TGL      -0.422400
     27 CG1          5.6780    -1.4290    -0.4560 c3         1 TGL       0.131400
     28 CG2          4.8560    -0.8910    -1.6110 c3         1 TGL       0.143100
     29 OG2          3.4910    -1.2470    -1.3990 os         1 TGL      -0.426900
     30 CG3          5.3030    -1.5230    -2.9110 c3         1 TGL       0.131400
     31 OG3          4.5290    -0.9280    -3.9470 os         1 TGL      -0.422400
     32 CC1          4.7140    -1.3670    -5.1910 c          1 TGL       0.644600
     33 CC2          3.7940    -0.6740    -6.1570 c3         1 TGL      -0.137400
     34 CC3          3.9910    -1.0990    -7.6030 c3         1 TGL      -0.068400
     35 CC4          3.0240    -0.3860    -8.5400 c3         1 TGL      -0.076400
     36 CC5          3.1960    -0.8000    -9.9950 c3         1 TGL      -0.074400
     37 CC6          2.2270    -0.0950   -10.9360 c3         1 TGL      -0.074400
     38 CC7          2.3920    -0.5090   -12.3930 c3         1 TGL      -0.074400
     39 CC8          1.4220     0.1970   -13.3320 c3         1 TGL      -0.074400
     40 CC9          1.5840    -0.2150   -14.7900 c3         1 TGL      -0.074400
     41 C15          0.6150     0.4970   -15.7270 c3         1 TGL      -0.074400
     42 C16          0.7740     0.0880   -17.1860 c3         1 TGL      -0.074400
     43 C17         -0.1900     0.8090   -18.1200 c3         1 TGL      -0.074400
     44 C18         -0.0330     0.4060   -19.5810 c3         1 TGL      -0.074400
     45 C19         -0.9920     1.1370   -20.5120 c3         1 TGL      -0.074400
     46 OC1          5.5220    -2.2140    -5.4750 o          1 TGL      -0.532500
     47 C20          3.9120     0.6130    13.0720 c3         1 TGL      -0.074400
     48 C21          4.3580     0.1670    14.4590 c3         1 TGL      -0.074400
     49 C22          3.6360     0.8940    15.5860 c3         1 TGL      -0.074400
     50 C23          4.0830     0.4510    16.9740 c3         1 TGL      -0.074400
     51 C24          3.3610     1.1780    18.1010 c3         1 TGL      -0.074400
     52 C25          3.8080     0.7350    19.4890 c3         1 TGL      -0.074400
     53 C26          3.0850     1.4640    20.6140 c3         1 TGL      -0.075400
     54 C27          3.5300     1.0230    22.0040 c3         1 TGL      -0.074400
     55 C28          2.8010     1.7590    23.1190 c3         1 TGL      -0.088600
     56 C29        -13.4910     0.2320     6.5880 c3         1 TGL      -0.074400
     57 C30        -14.7640    -0.5610     6.8600 c3         1 TGL      -0.076400
     58 C31        -15.7840     0.1970     7.7000 c3         1 TGL      -0.074400
     59 C32        -17.0470    -0.6100     7.9630 c3         1 TGL      -0.088100
     60 C33         -0.8340     0.7410   -21.9750 c3         1 TGL      -0.074400
     61 C34         -1.7860     1.4820   -22.9040 c3         1 TGL      -0.075400
     62 C35         -1.6220     1.1000   -24.3700 c3         1 TGL      -0.074400
     63 C36         -2.5730     1.8560   -25.2890 c3         1 TGL      -0.088600
     64 HA21         3.9080    -0.6560     2.9390 hc         1 TGL       0.073450
     65 HA22         5.1500     0.5640     2.9150 hc         1 TGL       0.073450
     66 HA31         6.5390    -0.8060     4.5050 hc         1 TGL       0.054200
     67 HA32         5.2990    -2.0430     4.5190 hc         1 TGL       0.054200
     68 HA41         3.6590    -0.3870     5.4320 hc         1 TGL       0.038200
     69 HA42         4.9010     0.8460     5.4250 hc         1 TGL       0.038200
     70 HA51         6.2670    -0.5210     7.0160 hc         1 TGL       0.040450
     71 HA52         5.0270    -1.7560     7.0200 hc         1 TGL       0.040450
     72 HA61         3.3850    -0.1040     7.9420 hc         1 TGL       0.037200
     73 HA62         4.6260     1.1300     7.9400 hc         1 TGL       0.037200
     74 HA71         5.9910    -0.2390     9.5310 hc         1 TGL       0.037700
     75 HA72         4.7510    -1.4730     9.5320 hc         1 TGL       0.037700
     76 HA81         3.1090     0.1770    10.4560 hc         1 TGL       0.036950
     77 HA82         4.3490     1.4120    10.4550 hc         1 TGL       0.036950
     78 HA91         5.7140     0.0420    12.0450 hc         1 TGL       0.037700
     79 HA92         4.4740    -1.1930    12.0460 hc         1 TGL       0.037700
     80 HB21         0.8390    -1.1990    -1.7640 hc         1 TGL       0.071200
     81 HB22         1.3890    -1.9050    -0.2700 hc         1 TGL       0.071200
     82 HB31         0.7330     0.2130     0.9520 hc         1 TGL       0.053700
     83 HB32         0.1270     0.8750    -0.5510 hc         1 TGL       0.053700
     84 HB41        -1.4960    -1.0170    -0.7370 hc         1 TGL       0.037200
     85 HB42        -0.8660    -1.7070     0.7410 hc         1 TGL       0.037200
     86 HB51        -1.5600     0.3520     1.9940 hc         1 TGL       0.039700
     87 HB52        -2.2180     1.0240     0.5180 hc         1 TGL       0.039700
     88 HB61        -3.8040    -0.9050     0.3440 hc         1 TGL       0.037200
     89 HB62        -3.1340    -1.5890     1.8080 hc         1 TGL       0.037200
     90 HB71        -3.8540     0.4460     3.0840 hc         1 TGL       0.037700
     91 HB72        -4.5410     1.1170     1.6210 hc         1 TGL       0.037700
     92 HB81        -6.0930    -0.8430     1.4510 hc         1 TGL       0.036700
     93 HB82        -5.4010    -1.5160     2.9100 hc         1 TGL       0.036700
     94 HB91        -6.1490     0.5040     4.1930 hc         1 TGL       0.037700
     95 HB92        -6.8510     1.1680     2.7340 hc         1 TGL       0.037700
     96 H101        -8.3750    -0.8140     2.5670 hc         1 TGL       0.036700
     97 H102        -7.6710    -1.4760     4.0250 hc         1 TGL       0.036700
     98 H111        -8.4430     0.5330     5.3090 hc         1 TGL       0.037700
     99 H112        -9.1520     1.1900     3.8510 hc         1 TGL       0.037700
    100 H121       -10.6550    -0.8080     3.6830 hc         1 TGL       0.036700
    101 H122        -9.9450    -1.4630     5.1410 hc         1 TGL       0.036700
    102 H131       -10.7370     0.5370     6.4250 hc         1 TGL       0.037200
    103 H132       -11.4510     1.1890     4.9670 hc         1 TGL       0.037200
    104 H141       -12.9380    -0.8210     4.7960 hc         1 TGL       0.036700
    105 H142       -12.2230    -1.4720     6.2550 hc         1 TGL       0.036700
    106 HG11         6.7320    -1.1790    -0.6050 h1         1 TGL       0.061450
    107 HG12         5.5900    -2.5170    -0.3940 h1         1 TGL       0.061450
    108 HG2          4.9690     0.1940    -1.6730 h1         1 TGL       0.094700
    109 HG31         6.3680    -1.3300    -3.0610 h1         1 TGL       0.061450
    110 HG32         5.1530    -2.6050    -2.8890 h1         1 TGL       0.061450
    111 HC21         2.7650    -0.8670    -5.8370 hc         1 TGL       0.073450
    112 HC22         3.9350     0.4060    -6.0500 hc         1 TGL       0.073450
    113 HC31         5.0180    -0.8910    -7.9140 hc         1 TGL       0.054200
    114 HC32         3.8520    -2.1800    -7.6940 hc         1 TGL       0.054200
    115 HC41         1.9950    -0.5890    -8.2240 hc         1 TGL       0.038200
    116 HC42         3.1620     0.6970    -8.4500 hc         1 TGL       0.038200
    117 HC51         4.2240    -0.5940   -10.3130 hc         1 TGL       0.040450
    118 HC52         3.0610    -1.8840   -10.0830 hc         1 TGL       0.040450
    119 HC61         1.1990    -0.2990   -10.6160 hc         1 TGL       0.037200
    120 HC62         2.3610     0.9890   -10.8490 hc         1 TGL       0.037200
    121 HC71         3.4200    -0.3050   -12.7140 hc         1 TGL       0.037700
    122 HC72         2.2570    -1.5930   -12.4810 hc         1 TGL       0.037700
    123 HC81         0.3940    -0.0060   -13.0100 hc         1 TGL       0.036950
    124 HC82         1.5570     1.2810   -13.2440 hc         1 TGL       0.036950
    125 HC91         2.6120    -0.0130   -15.1120 hc         1 TGL       0.037700
    126 HC92         1.4450    -1.2980   -14.8800 hc         1 TGL       0.037700
    127 H151        -0.4130     0.2960   -15.4040 hc         1 TGL       0.036700
    128 H152         0.7540     1.5800   -15.6360 hc         1 TGL       0.036700
    129 H161         1.8030     0.2840   -17.5070 hc         1 TGL       0.037700
    130 H162         0.6280    -0.9940   -17.2790 hc         1 TGL       0.037700
    131 H171        -1.2200     0.6130   -17.7990 hc         1 TGL       0.036700
    132 H172        -0.0440     1.8910   -18.0250 hc         1 TGL       0.036700
    133 H181         0.9980     0.5970   -19.9000 hc         1 TGL       0.036950
    134 H182        -0.1850    -0.6750   -19.6780 hc         1 TGL       0.036950
    135 H191        -2.0230     0.9450   -20.1940 hc         1 TGL       0.036700
    136 H192        -0.8400     2.2170   -20.4110 hc         1 TGL       0.036700
    137 H201         2.8320     0.4580    12.9710 hc         1 TGL       0.036700
    138 H202         4.0730     1.6920    12.9700 hc         1 TGL       0.036700
    139 H211         5.4380     0.3230    14.5600 hc         1 TGL       0.037700
    140 H212         4.1970    -0.9120    14.5620 hc         1 TGL       0.037700
    141 H221         2.5570     0.7380    15.4870 hc         1 TGL       0.036700
    142 H222         3.7960     1.9740    15.4830 hc         1 TGL       0.036700
    143 H231         5.1630     0.6070    17.0740 hc         1 TGL       0.036950
    144 H232         3.9240    -0.6290    17.0770 hc         1 TGL       0.036950
    145 H241         2.2810     1.0210    18.0010 hc         1 TGL       0.036700
    146 H242         3.5200     2.2570    17.9970 hc         1 TGL       0.036700
    147 H251         4.8880     0.8910    19.5890 hc         1 TGL       0.036700
    148 H252         3.6480    -0.3440    19.5930 hc         1 TGL       0.036700
    149 H261         2.0050     1.3080    20.5140 hc         1 TGL       0.036700
    150 H262         3.2440     2.5430    20.5090 hc         1 TGL       0.036700
    151 H271         4.6080     1.1800    22.1040 hc         1 TGL       0.036700
    152 H272         3.3700    -0.0540    22.1090 hc         1 TGL       0.036700
    153 H281         3.1340     1.4290    24.1040 hc         1 TGL       0.031367
    154 H282         2.9700     2.8360    23.0570 hc         1 TGL       0.031367
    155 H283         1.7230     1.5930    23.0620 hc         1 TGL       0.031367
    156 H291       -13.0320     0.5200     7.5400 hc         1 TGL       0.036700
    157 H292       -13.7480     1.1690     6.0820 hc         1 TGL       0.036700
    158 H301       -15.2220    -0.8500     5.9070 hc         1 TGL       0.036700
    159 H302       -14.5050    -1.4980     7.3650 hc         1 TGL       0.036700
    160 H311       -15.3260     0.4850     8.6510 hc         1 TGL       0.036700
    161 H312       -16.0430     1.1330     7.1940 hc         1 TGL       0.036700
    162 H321       -17.7670    -0.0500     8.5620 hc         1 TGL       0.031367
    163 H322       -17.5390    -0.8870     7.0280 hc         1 TGL       0.031367
    164 H323       -16.8190    -1.5340     8.4980 hc         1 TGL       0.031367
    165 H331         0.1990     0.9280   -22.2910 hc         1 TGL       0.036700
    166 H332        -0.9920    -0.3380   -22.0790 hc         1 TGL       0.036700
    167 H341        -2.8200     1.2900   -22.5940 hc         1 TGL       0.036700
    168 H342        -1.6330     2.5620   -22.7930 hc         1 TGL       0.036700
    169 H351        -0.5890     1.2880   -24.6800 hc         1 TGL       0.036700
    170 H352        -1.7820     0.0240   -24.4850 hc         1 TGL       0.036700
    171 H361        -2.4240     1.5850   -26.3340 hc         1 TGL       0.031367
    172 H362        -3.6150     1.6450   -25.0390 hc         1 TGL       0.031367
    173 H363        -2.4280     2.9350   -25.2040 hc         1 TGL       0.031367
@<TRIPOS>BOND
     1     1     2 1   
     2     1    10 2   
     3     1    26 1   
     4     2     3 1   
     5     2    64 1   
     6     2    65 1   
     7     3     4 1   
     8     3    66 1   
     9     3    67 1   
    10     4     5 1   
    11     4    68 1   
    12     4    69 1   
    13     5     6 1   
    14     5    70 1   
    15     5    71 1   
    16     6     7 1   
    17     6    72 1   
    18     6    73 1   
    19     7     8 1   
    20     7    74 1   
    21     7    75 1   
    22     8     9 1   
    23     8    76 1   
    24     8    77 1   
    25     9    47 1   
    26     9    78 1   
    27     9    79 1   
    28    11    12 1   
    29    11    25 2   
    30    11    29 1   
    31    12    13 1   
    32    12    80 1   
    33    12    81 1   
    34    13    14 1   
    35    13    82 1   
    36    13    83 1   
    37    14    15 1   
    38    14    84 1   
    39    14    85 1   
    40    15    16 1   
    41    15    86 1   
    42    15    87 1   
    43    16    17 1   
    44    16    88 1   
    45    16    89 1   
    46    17    18 1   
    47    17    90 1   
    48    17    91 1   
    49    18    19 1   
    50    18    92 1   
    51    18    93 1   
    52    19    20 1   
    53    19    94 1   
    54    19    95 1   
    55    20    21 1   
    56    20    96 1   
    57    20    97 1   
    58    21    22 1   
    59    21    98 1   
    60    21    99 1   
    61    22    23 1   
    62    22   100 1   
    63    22   101 1   
    64    23    24 1   
    65    23   102 1   
    66    23   103 1   
    67    24    56 1   
    68    24   104 1   
    69    24   105 1   
    70    26    27 1   
    71    27    28 1   
    72    27   106 1   
    73    27   107 1   
    74    28    29 1   
    75    28    30 1   
    76    28   108 1   
    77    30    31 1   
    78    30   109 1   
    79    30   110 1   
    80    31    32 1   
    81    32    33 1   
    82    32    46 2   
    83    33    34 1   
    84    33   111 1   
    85    33   112 1   
    86    34    35 1   
    87    34   113 1   
    88    34   114 1   
    89    35    36 1   
    90    35   115 1   
    91    35   116 1   
    92    36    37 1   
    93    36   117 1   
    94    36   118 1   
    95    37    38 1   
    96    37   119 1   
    97    37   120 1   
    98    38    39 1   
    99    38   121 1   
   100    38   122 1   
   101    39    40 1   
   102    39   123 1   
   103    39   124 1   
   104    40    41 1   
   105    40   125 1   
   106    40   126 1   
   107    41    42 1   
   108    41   127 1   
   109    41   128 1   
   110    42    43 1   
   111    42   129 1   
   112    42   130 1   
   113    43    44 1   
   114    43   131 1   
   115    43   132 1   
   116    44    45 1   
   117    44   133 1   
   118    44   134 1   
   119    45    60 1   
   120    45   135 1   
   121    45   136 1   
   122    47    48 1   
   123    47   137 1   
   124    47   138 1   
   125    48    49 1   
   126    48   139 1   
   127    48   140 1   
   128    49    50 1   
   129    49   141 1   
   130    49   142 1   
   131    50    51 1   
   132    50   143 1   
   133    50   144 1   
   134    51    52 1   
   135    51   145 1   
   136    51   146 1   
   137    52    53 1   
   138    52   147 1   
   139    52   148 1   
   140    53    54 1   
   141    53   149 1   
   142    53   150 1   
   143    54    55 1   
   144    54   151 1   
   145    54   152 1   
   146    55   153 1   
   147    55   154 1   
   148    55   155 1   
   149    56    57 1   
   150    56   156 1   
   151    56   157 1   
   152    57    58 1   
   153    57   158 1   
   154    57   159 1   
   155    58    59 1   
   156    58   160 1   
   157    58   161 1   
   158    59   162 1   
   159    59   163 1   
   160    59   164 1   
   161    60    61 1   
   162    60   165 1   
   163    60   166 1   
   164    61    62 1   
   165    61   167 1   
   166    61   168 1   
   167    62    63 1   
   168    62   169 1   
   169    62   170 1   
   170    63   171 1   
   171    63   172 1   
   172    63   173 1   
@<TRIPOS>SUBSTRUCTURE
     1 TGL         1 TEMP              0 ****  ****    0 ROOT
