@<TRIPOS>MOLECULE
TGM
   42    45     1     0     0
SMALL
No Charge or Current Charge


@<TRIPOS>ATOM
      1 C10          4.9720   -17.6510   -30.7120 cc         1 TGM       0.071400
      2 C13          3.4740   -15.8750   -27.7400 ca         1 TGM      -0.180000
      3 C15          5.8250   -15.2800   -27.8690 ca         1 TGM      -0.221000
      4 C20          4.6860   -20.5590   -32.5910 cc         1 TGM      -0.095000
      5 C21          4.8340   -20.7100   -33.9510 cd         1 TGM      -0.112000
      6 C22          5.1250   -19.5440   -34.7480 cd         1 TGM      -0.193000
      7 C26          7.1020   -13.2870   -34.5370 ca         1 TGM      -0.052600
      8 C04          8.1920   -14.0240   -35.0720 ca         1 TGM      -0.128600
      9 C05          8.3880   -15.3620   -34.6690 ca         1 TGM      -0.090000
     10 C06          7.5050   -15.9720   -33.7630 ca         1 TGM      -0.217000
     11 C07          6.4070   -15.2590   -33.2560 ca         1 TGM       0.226000
     12 C09          5.2870   -17.1530   -31.9620 cd         1 TGM       0.126900
     13 C11          4.8600   -16.7890   -29.5330 ca         1 TGM      -0.039800
     14 C12          3.6160   -16.6870   -28.8780 ca         1 TGM      -0.056000
     15 C14          4.5760   -15.1670   -27.2380 ca         1 TGM      -0.078000
     16 C16          5.9740   -16.0910   -29.0080 ca         1 TGM       0.170100
     17 C19          4.8390   -19.3410   -31.9760 cd         1 TGM      -0.099000
     18 C23          5.2820   -18.2790   -34.1870 cc         1 TGM      -0.049000
     19 C25          6.2210   -13.9210   -33.6310 ca         1 TGM      -0.175000
     20 N08          5.5250   -15.8370   -32.3430 nu         1 TGM      -0.834000
     21 N18          4.6920   -18.9910   -30.7120 nc         1 TGM      -0.304600
     22 N24          5.1820   -18.2680   -32.7920 na         1 TGM       0.116100
     23 O01          8.6570   -12.9520   -37.1110 o          1 TGM      -0.730500
     24 O03         10.3350   -13.4970   -35.8760 o          1 TGM      -0.730500
     25 O17          7.2110   -16.2120   -29.5730 oh         1 TGM      -0.489100
     26 O28          5.7780   -11.4900   -35.2960 o          1 TGM      -0.737000
     27 O29          7.7810   -11.0320   -34.6500 o          1 TGM      -0.737000
     28 H1           2.5070   -15.7970   -27.2480 ha         1 TGM       0.096000
     29 H2           6.6760   -14.7400   -27.4620 ha         1 TGM       0.114000
     30 H3           4.4330   -21.4270   -31.9900 ha         1 TGM       0.119000
     31 H4           4.7100   -21.6830   -34.4150 ha         1 TGM       0.100000
     32 H5           5.2130   -19.6520   -35.8250 ha         1 TGM       0.120000
     33 H6           9.2260   -15.9300   -35.0660 ha         1 TGM       0.106000
     34 H7           7.6870   -16.9970   -33.4550 ha         1 TGM       0.072000
     35 H8           2.7570   -17.2330   -29.2620 ha         1 TGM       0.117000
     36 H9           4.4640   -14.5400   -26.3550 ha         1 TGM       0.094000
     37 H10          5.4710   -17.3540   -34.7140 h4         1 TGM       0.180000
     38 H11          5.3870   -13.3580   -33.2190 ha         1 TGM       0.089000
     39 H12          5.0890   -15.1570   -31.7200 hn         1 TGM       0.482000
     40 H14          7.8350   -15.6490   -29.0710 ho         1 TGM       0.477000
     41 C02          9.1330   -13.4070   -36.0800 c          1 TGM       0.716600
     42 C27          6.8850   -11.8290   -34.8940 c          1 TGM       0.753600
@<TRIPOS>BOND
     1     1    12 2   
     2     1    13 1   
     3     1    21 1   
     4     2    14 ar  
     5     2    15 ar  
     6     2    28 1   
     7     3    15 ar  
     8     3    16 ar  
     9     3    29 1   
    10     4     5 2   
    11     4    17 1   
    12     4    30 1   
    13     5     6 1   
    14     5    31 1   
    15     6    18 2   
    16     6    32 1   
    17     7     8 ar  
    18     7    19 ar  
    19     7    42 1   
    20     8     9 ar  
    21     8    41 1   
    22     9    10 ar  
    23     9    33 1   
    24    10    11 ar  
    25    10    34 1   
    26    11    19 ar  
    27    11    20 1   
    28    12    20 1   
    29    12    22 1   
    30    13    14 ar  
    31    13    16 ar  
    32    14    35 1   
    33    15    36 1   
    34    16    25 1   
    35    17    21 2   
    36    17    22 1   
    37    18    22 1   
    38    18    37 1   
    39    19    38 1   
    40    20    39 1   
    41    23    41 1   
    42    24    41 1   
    43    25    40 1   
    44    26    42 1   
    45    27    42 1   
@<TRIPOS>SUBSTRUCTURE
     1 TGM         1 TEMP              0 ****  ****    0 ROOT
