@<TRIPOS>MOLECULE
TGM
   42    45     1     0     0
SMALL
abcg2


@<TRIPOS>ATOM
      1 C10          5.0110   -17.5180   -30.8480 cc         1 TGM       0.071400
      2 C13          3.9280   -16.2640   -27.4780 ca         1 TGM      -0.180000
      3 C15          5.7200   -14.8580   -28.2530 ca         1 TGM      -0.221000
      4 C20          4.8130   -20.6090   -32.5450 cc         1 TGM      -0.095000
      5 C21          4.8040   -20.7860   -33.8970 cd         1 TGM      -0.112000
      6 C22          4.8630   -19.6680   -34.7690 cd         1 TGM      -0.193000
      7 C26          7.1950   -13.3480   -34.4280 ca         1 TGM      -0.052600
      8 C04          8.3390   -14.1000   -34.7310 ca         1 TGM      -0.128600
      9 C05          8.3680   -15.4320   -34.3240 ca         1 TGM      -0.090000
     10 C06          7.3160   -16.0350   -33.6550 ca         1 TGM      -0.217000
     11 C07          6.1700   -15.2920   -33.3750 ca         1 TGM       0.226000
     12 C09          5.0610   -17.0930   -32.1590 cd         1 TGM       0.126900
     13 C11          4.9600   -16.6970   -29.6330 ca         1 TGM      -0.039800
     14 C12          4.0310   -17.0100   -28.6410 ca         1 TGM      -0.056000
     15 C14          4.7740   -15.1780   -27.2920 ca         1 TGM      -0.078000
     16 C16          5.8270   -15.6180   -29.4170 ca         1 TGM       0.170100
     17 C19          4.8860   -19.3010   -32.0240 cd         1 TGM      -0.099000
     18 C23          4.9460   -18.4110   -34.2650 cc         1 TGM      -0.049000
     19 C25          6.1280   -13.9560   -33.7750 ca         1 TGM      -0.175000
     20 N08          5.0600   -15.8470   -32.7480 nu         1 TGM      -0.834000
     21 N18          4.8900   -18.8700   -30.7780 nc         1 TGM      -0.304600
     22 N24          4.9700   -18.2440   -32.9120 na         1 TGM       0.116100
     23 O01          9.2880   -12.5400   -36.2290 o          1 TGM      -0.730500
     24 O03         10.5960   -14.1530   -35.4210 o          1 TGM      -0.730500
     25 O17          6.7630   -15.3700   -30.3490 oh         1 TGM      -0.489100
     26 O28          6.2240   -11.5040   -35.5390 o          1 TGM      -0.737000
     27 O29          7.7370   -11.1200   -33.9400 o          1 TGM      -0.737000
     28 H1           3.1920   -16.5210   -26.7290 ha         1 TGM       0.096000
     29 H2           6.3920   -14.0210   -28.0970 ha         1 TGM       0.114000
     30 H3           4.7600   -21.4410   -31.8560 ha         1 TGM       0.119000
     31 H4           4.7470   -21.7830   -34.3130 ha         1 TGM       0.100000
     32 H5           4.8410   -19.8040   -35.8400 ha         1 TGM       0.120000
     33 H6           9.2500   -16.0220   -34.5380 ha         1 TGM       0.106000
     34 H7           7.4030   -17.0700   -33.3460 ha         1 TGM       0.072000
     35 H8           3.3680   -17.8510   -28.7990 ha         1 TGM       0.117000
     36 H9           4.7070   -14.5780   -26.3940 ha         1 TGM       0.094000
     37 H10          4.9880   -17.5180   -34.8700 h4         1 TGM       0.180000
     38 H11          5.2400   -13.3740   -33.5470 ha         1 TGM       0.089000
     39 H12          4.3880   -15.1890   -32.3820 hn         1 TGM       0.482000
     40 H14          7.2850   -14.5950   -30.1080 ho         1 TGM       0.477000
     41 C02          9.5100   -13.5430   -35.5230 c          1 TGM       0.716600
     42 C27          7.0610   -11.8520   -34.6850 c          1 TGM       0.753600
@<TRIPOS>BOND
     1     1    12 2   
     2     1    13 1   
     3     1    21 1   
     4     2    14 ar  
     5     2    15 ar  
     6     2    28 1   
     7     3    15 ar  
     8     3    16 ar  
     9     3    29 1   
    10     4     5 2   
    11     4    17 1   
    12     4    30 1   
    13     5     6 1   
    14     5    31 1   
    15     6    18 2   
    16     6    32 1   
    17     7     8 ar  
    18     7    19 ar  
    19     7    42 1   
    20     8     9 ar  
    21     8    41 1   
    22     9    10 ar  
    23     9    33 1   
    24    10    11 ar  
    25    10    34 1   
    26    11    19 ar  
    27    11    20 1   
    28    12    20 1   
    29    12    22 1   
    30    13    14 ar  
    31    13    16 ar  
    32    14    35 1   
    33    15    36 1   
    34    16    25 1   
    35    17    21 2   
    36    17    22 1   
    37    18    22 1   
    38    18    37 1   
    39    19    38 1   
    40    20    39 1   
    41    23    41 1   
    42    24    41 1   
    43    25    40 1   
    44    26    42 1   
    45    27    42 1   
@<TRIPOS>SUBSTRUCTURE
     1 TGM         1 TEMP              0 ****  ****    0 ROOT
