@<TRIPOS>MOLECULE
TGN
   44    46     1     0     0
SMALL
bcc


@<TRIPOS>ATOM
      1 C8          -1.3620     0.0170    -0.5500 c6         1 TGN      -0.139700
      2 C10         -2.9030    -0.0100    -0.5550 c5         1 TGN       0.167500
      3 N12         -3.3690    -0.0450     0.8230 n3         1 TGN      -0.685600
      4 C14         -4.7660     0.3150     0.9570 c3         1 TGN       0.152100
      5 C18         -3.4320    -1.3170    -1.1970 c5         1 TGN      -0.108400
      6 C21         -3.5610    -2.2800    -0.0010 c5         1 TGN      -0.111400
      7 C24         -3.0880    -1.4290     1.2010 c5         1 TGN       0.159500
      8 C26         -1.5830    -1.5600     1.4310 c6         1 TGN      -0.075400
      9 C29         -0.8120    -1.2260     0.1600 c6         1 TGN       0.249100
     10 O1           0.5600    -1.0790     0.4680 os         1 TGN      -0.576200
     11 P2           1.7310    -1.5210    -0.6160 p5         1 TGN       1.301900
     12 O17          2.2250    -2.8950    -0.2600 o          1 TGN      -0.830000
     13 O3           1.2420    -1.2280    -2.0090 o          1 TGN      -0.830000
     14 C4           2.9780    -0.2860    -0.1320 ca         1 TGN      -0.242500
     15 C5           2.8530     1.0360    -0.5610 ca         1 TGN      -0.062000
     16 C13          4.0710    -0.6350     0.6560 ca         1 TGN      -0.062000
     17 C7           3.7940     1.9890    -0.2010 ca         1 TGN      -0.169000
     18 C9           4.8790     1.6310     0.5910 ca         1 TGN      -0.133000
     19 C11          5.0170     0.3170     1.0170 ca         1 TGN      -0.169000
     20 C6          -0.8850     1.3050     0.0710 c          1 TGN       0.666100
     21 O7          -0.6950     1.5120     1.2420 o          1 TGN      -0.514000
     22 O5          -0.7200     2.2450    -0.8610 os         1 TGN      -0.432900
     23 C1          -0.3070     3.5370    -0.4240 c3         1 TGN       0.130700
     24 H8          -1.0210    -0.0100    -1.5860 hc         1 TGN       0.111700
     25 H10         -3.2810     0.8780    -1.0670 h1         1 TGN       0.059700
     26 H141        -5.4630    -0.2920     0.3640 h1         1 TGN       0.021367
     27 H142        -5.0640     0.2300     2.0030 h1         1 TGN       0.021367
     28 H143        -4.9030     1.3560     0.6590 h1         1 TGN       0.021367
     29 H181        -2.7710    -1.6930    -1.9800 hc         1 TGN       0.048200
     30 H182        -4.4000    -1.1370    -1.6640 hc         1 TGN       0.048200
     31 H211        -2.9650    -3.1860    -0.1220 hc         1 TGN       0.041700
     32 H212        -4.5950    -2.6020     0.1340 hc         1 TGN       0.041700
     33 H24         -3.6180    -1.6830     2.1220 h1         1 TGN       0.049700
     34 H261        -1.3440    -2.5810     1.7410 hc         1 TGN       0.063200
     35 H262        -1.2870    -0.8920     2.2420 hc         1 TGN       0.063200
     36 H29         -0.9510    -2.0590    -0.5410 h1         1 TGN       0.028700
     37 H5           2.0140     1.3230    -1.1840 ha         1 TGN       0.140000
     38 H13          4.1850    -1.6590     0.9870 ha         1 TGN       0.140000
     39 H7           3.6860     3.0120    -0.5400 ha         1 TGN       0.104000
     40 H9           5.6150     2.3730     0.8720 ha         1 TGN       0.100000
     41 H11          5.8640     0.0330     1.6290 ha         1 TGN       0.104000
     42 H11A        -1.0320     3.9830     0.2570 h1         1 TGN       0.035700
     43 H12          0.6660     3.4990     0.0670 h1         1 TGN       0.035700
     44 H13A        -0.2310     4.1480    -1.3190 h1         1 TGN       0.035700
@<TRIPOS>BOND
     1     1     2 1   
     2     1     9 1   
     3     1    20 1   
     4     1    24 1   
     5     2     3 1   
     6     2     5 1   
     7     2    25 1   
     8     3     4 1   
     9     3     7 1   
    10     4    26 1   
    11     4    27 1   
    12     4    28 1   
    13     5     6 1   
    14     5    29 1   
    15     5    30 1   
    16     6     7 1   
    17     6    31 1   
    18     6    32 1   
    19     7     8 1   
    20     7    33 1   
    21     8     9 1   
    22     8    34 1   
    23     8    35 1   
    24     9    10 1   
    25     9    36 1   
    26    10    11 1   
    27    11    12 1   
    28    11    13 1   
    29    11    14 1   
    30    14    15 ar  
    31    14    16 ar  
    32    15    17 ar  
    33    15    37 1   
    34    16    19 ar  
    35    16    38 1   
    36    17    18 ar  
    37    17    39 1   
    38    18    19 ar  
    39    18    40 1   
    40    19    41 1   
    41    20    21 2   
    42    20    22 1   
    43    22    23 1   
    44    23    42 1   
    45    23    43 1   
    46    23    44 1   
@<TRIPOS>SUBSTRUCTURE
     1 TGN         1 TEMP              0 ****  ****    0 ROOT
