@<TRIPOS>MOLECULE
TGN
   44    46     1     0     0
SMALL
No Charge or Current Charge


@<TRIPOS>ATOM
      1 C8          -1.6940     0.2120    -0.5490 c6         1 TGN      -0.139700
      2 C10         -3.2240    -0.0740    -0.4820 c5         1 TGN       0.167500
      3 N12         -3.6180    -0.2830     0.9380 n3         1 TGN      -0.685600
      4 C14         -5.0670    -0.1410     1.2230 c3         1 TGN       0.152100
      5 C18         -3.6490    -1.4380    -1.1190 c5         1 TGN      -0.108400
      6 C21         -3.5010    -2.4720     0.0550 c5         1 TGN      -0.111400
      7 C24         -3.0320    -1.6050     1.2690 c5         1 TGN       0.159500
      8 C26         -1.4930    -1.4220     1.3950 c6         1 TGN      -0.075400
      9 C29         -0.8710    -0.9440     0.0680 c6         1 TGN       0.272300
     10 O1           0.5080    -0.6000     0.2580 os         1 TGN      -0.599400
     11 P2           1.5880    -1.0800    -0.8410 p5         1 TGN       1.301900
     12 O17          1.8690    -2.5400    -0.6910 o          1 TGN      -0.830000
     13 O3           1.1720    -0.6940    -2.2230 o          1 TGN      -0.830000
     14 C4           3.0090    -0.0710    -0.2850 ca         1 TGN      -0.242500
     15 C5           3.2380     1.2010    -0.8480 ca         1 TGN      -0.044000
     16 C13          3.8710    -0.5500     0.7220 ca         1 TGN      -0.044000
     17 C7           4.3220     1.9830    -0.4120 ca         1 TGN      -0.151000
     18 C9           5.1820     1.5000     0.5890 ca         1 TGN      -0.115000
     19 C11          4.9550     0.2350     1.1550 ca         1 TGN      -0.151000
     20 C6          -1.2660     1.5900    -0.0140 c          1 TGN       0.617100
     21 O7          -1.9470     2.2560     0.7560 o          1 TGN      -0.465000
     22 O5          -0.1900     2.1160    -0.6890 os         1 TGN      -0.456100
     23 C1           0.2730     3.4270    -0.3200 c3         1 TGN       0.153900
     24 H8          -1.3680     0.2150    -1.5960 hc         1 TGN       0.111700
     25 H10         -3.7560     0.7700    -0.9460 h1         1 TGN       0.059700
     26 H141        -5.6710    -0.8660     0.6630 h1         1 TGN       0.021367
     27 H142        -5.2610    -0.2910     2.2930 h1         1 TGN       0.021367
     28 H143        -5.4100     0.8670     0.9560 h1         1 TGN       0.021367
     29 H181        -3.0340    -1.7000    -1.9870 hc         1 TGN       0.048200
     30 H182        -4.6850    -1.3990    -1.4730 hc         1 TGN       0.048200
     31 H211        -2.7920    -3.2740    -0.1780 hc         1 TGN       0.041700
     32 H212        -4.4610    -2.9570     0.2680 hc         1 TGN       0.041700
     33 H24         -3.4100    -2.0000     2.2230 h1         1 TGN       0.049700
     34 H261        -1.0320    -2.3720     1.6950 hc         1 TGN       0.063200
     35 H262        -1.2760    -0.6990     2.1930 hc         1 TGN       0.063200
     36 H29         -0.9200    -1.7950    -0.6280 h1         1 TGN       0.028700
     37 H5           2.5750     1.5840    -1.6220 ha         1 TGN       0.122000
     38 H13          3.7000    -1.5270     1.1700 ha         1 TGN       0.122000
     39 H7           4.4950     2.9630    -0.8490 ha         1 TGN       0.086000
     40 H9           6.0200     2.1060     0.9260 ha         1 TGN       0.082000
     41 H11          5.6180    -0.1390     1.9320 ha         1 TGN       0.086000
     42 H11A        -0.5110     4.1790    -0.4770 h1         1 TGN       0.035700
     43 H12          0.5760     3.4510     0.7350 h1         1 TGN       0.035700
     44 H13A         1.1410     3.7100    -0.9290 h1         1 TGN       0.035700
@<TRIPOS>BOND
     1     1     2 1   
     2     1     9 1   
     3     1    20 1   
     4     1    24 1   
     5     2     3 1   
     6     2     5 1   
     7     2    25 1   
     8     3     4 1   
     9     3     7 1   
    10     4    26 1   
    11     4    27 1   
    12     4    28 1   
    13     5     6 1   
    14     5    29 1   
    15     5    30 1   
    16     6     7 1   
    17     6    31 1   
    18     6    32 1   
    19     7     8 1   
    20     7    33 1   
    21     8     9 1   
    22     8    34 1   
    23     8    35 1   
    24     9    10 1   
    25     9    36 1   
    26    10    11 1   
    27    11    12 1   
    28    11    13 1   
    29    11    14 1   
    30    14    15 ar  
    31    14    16 ar  
    32    15    17 ar  
    33    15    37 1   
    34    16    19 ar  
    35    16    38 1   
    36    17    18 ar  
    37    17    39 1   
    38    18    19 ar  
    39    18    40 1   
    40    19    41 1   
    41    20    21 2   
    42    20    22 1   
    43    22    23 1   
    44    23    42 1   
    45    23    43 1   
    46    23    44 1   
@<TRIPOS>SUBSTRUCTURE
     1 TGN         1 TEMP              0 ****  ****    0 ROOT
