@<TRIPOS>MOLECULE
TGQ
   56    58     1     0     0
SMALL
bcc


@<TRIPOS>ATOM
      1 N3           3.8920     2.8930     0.0560 nc         1 TGQ      -0.748100
      2 C2           4.6840     2.8640    -0.9760 cd         1 TGQ       0.867100
      3 N1           5.3800     1.7600    -1.3400 na         1 TGQ      -0.741000
      4 C8A          5.2720     0.6030    -0.6100 cc         1 TGQ       0.262000
      5 C4A          4.4680     0.5880     0.4870 cd         1 TGQ      -0.116200
      6 C06          3.7370     1.7780     0.8400 c          1 TGQ       0.723700
      7 N8           5.9430    -0.5000    -1.0470 nu         1 TGQ      -0.763000
      8 C7           6.0460    -1.6000    -0.1070 c6         1 TGQ       0.212800
      9 C6           4.7060    -1.7990     0.5950 c6         1 TGQ       0.156500
     10 N5           4.3630    -0.5680     1.2820 nu         1 TGQ      -0.679000
     11 C9           3.6350    -2.2900    -0.3910 c3         1 TGQ       0.212800
     12 N10          2.3820    -2.5980     0.2640 nh         1 TGQ      -0.714000
     13 C15          1.2760    -1.8040     0.1900 ca         1 TGQ       0.175600
     14 C14          1.2840    -0.5330    -0.4210 ca         1 TGQ      -0.223500
     15 C13          0.1370     0.2270    -0.5020 ca         1 TGQ      -0.049500
     16 C12         -1.0850    -0.2120     0.0090 ca         1 TGQ      -0.140600
     17 C17         -1.0900    -1.4550     0.6410 ca         1 TGQ      -0.049500
     18 C16          0.0480    -2.2320     0.7360 ca         1 TGQ      -0.223500
     19 C           -2.2800     0.6610    -0.1540 c          1 TGQ       0.670700
     20 N           -3.4760     0.1210     0.1230 ns         1 TGQ      -0.494900
     21 CA          -4.6980     0.8910     0.1190 c3         1 TGQ      -0.043300
     22 CT          -4.7860     1.8890     1.3010 c          1 TGQ       0.930600
     23 O1          -4.0260     1.7120     2.2690 o          1 TGQ      -0.847300
     24 O2          -5.6580     2.7730     1.1800 o          1 TGQ      -0.847300
     25 CB          -5.8960    -0.0610     0.1400 c3         1 TGQ      -0.059400
     26 CG          -5.9630    -0.9790    -1.0720 c3         1 TGQ      -0.201400
     27 CD          -7.1550    -1.9500    -1.1060 c          1 TGQ       0.922600
     28 OE1         -7.3480    -2.5410    -2.1910 o          1 TGQ      -0.867800
     29 OE2         -7.8210    -2.0940    -0.0610 o          1 TGQ      -0.867800
     30 O           -2.1690     1.8100    -0.5760 o          1 TGQ      -0.644100
     31 O4           2.9850     1.7980     1.8190 o          1 TGQ      -0.535100
     32 NA2          4.8800     3.9770    -1.7140 nv         1 TGQ      -0.936800
     33 CBG          2.3110    -3.8680     0.9500 c3         1 TGQ       0.226100
     34 H3           6.3190    -2.5010    -0.6550 h1         1 TGQ       0.039200
     35 H4           6.8220    -1.4220     0.6440 h1         1 TGQ       0.039200
     36 H5           4.8520    -2.5750     1.3520 h1         1 TGQ       0.063700
     37 H6           3.4680    -0.6120     1.7510 hn         1 TGQ       0.432800
     38 H8           3.4770    -1.5620    -1.1850 h1         1 TGQ       0.050200
     39 H9           3.9990    -3.1970    -0.8830 h1         1 TGQ       0.050200
     40 H10          2.1950    -0.1180    -0.8260 ha         1 TGQ       0.112000
     41 H11          0.1930     1.1940    -0.9830 ha         1 TGQ       0.145500
     42 H12         -1.9900    -1.8590     1.0900 ha         1 TGQ       0.145500
     43 H13         -0.0300    -3.1850     1.2390 ha         1 TGQ       0.112000
     44 H14         -3.5150    -0.7900     0.5480 hn         1 TGQ       0.295500
     45 H15         -4.7360     1.4670    -0.8100 h1         1 TGQ       0.052700
     46 H17         -5.8710    -0.6540     1.0600 hc         1 TGQ       0.050200
     47 H18         -6.8010     0.5450     0.1930 hc         1 TGQ       0.050200
     48 H19         -5.9710    -0.3770    -1.9870 hc         1 TGQ       0.009200
     49 H20         -5.0490    -1.5800    -1.1400 hc         1 TGQ       0.009200
     50 H22          4.2280     4.7290    -1.5630 hn         1 TGQ       0.432300
     51 H23          5.2400     3.9020    -2.6510 hn         1 TGQ       0.432300
     52 H24          1.9960    -3.7560     1.9900 h1         1 TGQ       0.025700
     53 H25          1.6250    -4.5660     0.4610 h1         1 TGQ       0.025700
     54 H26          3.2970    -4.3260     0.9580 h1         1 TGQ       0.025700
     55 H1           5.9860     1.7830    -2.1480 hn         1 TGQ       0.431800
     56 H2           6.7470    -0.3490    -1.6370 hn         1 TGQ       0.399800
@<TRIPOS>BOND
     1     1     2 2   
     2     1     6 1   
     3     2     3 1   
     4     2    32 1   
     5     3     4 1   
     6     3    55 1   
     7     4     5 2   
     8     4     7 1   
     9     5     6 1   
    10     5    10 1   
    11     6    31 2   
    12     7     8 1   
    13     7    56 1   
    14     8     9 1   
    15     8    34 1   
    16     8    35 1   
    17     9    10 1   
    18     9    11 1   
    19     9    36 1   
    20    10    37 1   
    21    11    12 1   
    22    11    38 1   
    23    11    39 1   
    24    12    13 1   
    25    12    33 1   
    26    13    14 ar  
    27    13    18 ar  
    28    14    15 ar  
    29    14    40 1   
    30    15    16 ar  
    31    15    41 1   
    32    16    17 ar  
    33    16    19 1   
    34    17    18 ar  
    35    17    42 1   
    36    18    43 1   
    37    19    20 1   
    38    19    30 2   
    39    20    21 1   
    40    20    44 1   
    41    21    22 1   
    42    21    25 1   
    43    21    45 1   
    44    22    23 1   
    45    22    24 1   
    46    25    26 1   
    47    25    46 1   
    48    25    47 1   
    49    26    27 1   
    50    26    48 1   
    51    26    49 1   
    52    27    28 1   
    53    27    29 1   
    54    32    50 1   
    55    32    51 1   
    56    33    52 1   
    57    33    53 1   
    58    33    54 1   
@<TRIPOS>SUBSTRUCTURE
     1 TGQ         1 TEMP              0 ****  ****    0 ROOT
