@<TRIPOS>MOLECULE
TGQ
   56    58     1     0     0
SMALL
No Charge or Current Charge


@<TRIPOS>ATOM
      1 N3           4.3910     3.0570    -0.4710 nc         1 TGQ      -0.748100
      2 C2           4.9070     2.8170    -1.6210 cd         1 TGQ       0.867100
      3 N1           5.3500     1.6050    -1.9980 na         1 TGQ      -0.796200
      4 C8A          5.2870     0.5030    -1.1960 cc         1 TGQ       0.262000
      5 C4A          4.7420     0.7060     0.0560 cd         1 TGQ      -0.116200
      6 C06          4.2580     2.0640     0.4490 c          1 TGQ       0.723700
      7 N8           5.7460    -0.6850    -1.6700 nu         1 TGQ      -0.818200
      8 C7           5.8640    -1.8400    -0.7430 c6         1 TGQ       0.212800
      9 C6           4.8250    -1.7750     0.4430 c6         1 TGQ       0.156500
     10 N5           4.6210    -0.3790     0.9430 nu         1 TGQ      -0.734200
     11 C9           3.4610    -2.4360     0.0390 c3         1 TGQ       0.212800
     12 N10          2.3880    -2.4360     1.0840 nh         1 TGQ      -0.852400
     13 C15          1.1660    -1.7390     0.8940 ca         1 TGQ       0.314000
     14 C14          1.1260    -0.5240     0.1840 ca         1 TGQ      -0.205500
     15 C13         -0.0810     0.1690     0.0010 ca         1 TGQ      -0.031500
     16 C12         -1.2910    -0.3330     0.5250 ca         1 TGQ      -0.140600
     17 C17         -1.2540    -1.5540     1.2390 ca         1 TGQ      -0.031500
     18 C16         -0.0410    -2.2410     1.4190 ca         1 TGQ      -0.205500
     19 C           -2.5770     0.4410     0.3070 c          1 TGQ       0.603700
     20 N           -3.7220    -0.0960     0.8620 ns         1 TGQ      -0.427900
     21 CA          -5.0910     0.4640     0.7420 c3         1 TGQ      -0.043300
     22 CT          -5.8260     0.3780     2.1150 c          1 TGQ       0.720000
     23 O1          -5.8170    -0.6880     2.7180 o          1 TGQ      -0.742000
     24 O2          -6.3060     1.4030     2.5800 o          1 TGQ      -0.742000
     25 CB          -5.9120    -0.2290    -0.3790 c3         1 TGQ      -0.059400
     26 CG          -5.3300    -0.0660    -1.8080 c3         1 TGQ      -0.201400
     27 CD          -6.2830    -0.6930    -2.8440 c          1 TGQ       0.712000
     28 OE1         -7.1680     0.0060    -3.3130 o          1 TGQ      -0.762500
     29 OE2         -6.1460    -1.8760    -3.1150 o          1 TGQ      -0.762500
     30 O           -2.6000     1.4920    -0.3230 o          1 TGQ      -0.644100
     31 O4           3.7560     2.3000     1.5400 o          1 TGQ      -0.535100
     32 NA2          5.0050     3.7870    -2.4890 nv         1 TGQ      -1.047200
     33 CBG          2.5680    -3.3710     2.2200 c3         1 TGQ       0.226100
     34 H3           5.7510    -2.7900    -1.2870 h1         1 TGQ       0.039200
     35 H4           6.8750    -1.8430    -0.3100 h1         1 TGQ       0.039200
     36 H5           5.2350    -2.3890     1.2580 h1         1 TGQ       0.063700
     37 H6           3.9530    -0.2550     1.7110 hn         1 TGQ       0.488000
     38 H8           3.1030    -1.9390    -0.8720 h1         1 TGQ       0.050200
     39 H9           3.6690    -3.4750    -0.2540 h1         1 TGQ       0.050200
     40 H10          2.0340    -0.0980    -0.2270 ha         1 TGQ       0.094000
     41 H11         -0.0710     1.1070    -0.5530 ha         1 TGQ       0.127500
     42 H12         -2.1570    -1.9900     1.6610 ha         1 TGQ       0.127500
     43 H13         -0.0560    -3.1790     1.9640 ha         1 TGQ       0.094000
     44 H14         -3.6150    -0.9490     1.3960 hn         1 TGQ       0.295500
     45 H15         -5.0090     1.5310     0.4960 h1         1 TGQ       0.052700
     46 H17         -6.0090    -1.2970    -0.1480 hc         1 TGQ       0.050200
     47 H18         -6.9280     0.1850    -0.3660 hc         1 TGQ       0.050200
     48 H19         -5.2410     1.0150    -1.9730 hc         1 TGQ       0.009200
     49 H20         -4.3680    -0.5940    -1.8080 hc         1 TGQ       0.009200
     50 H22          4.5040     4.6140    -2.1940 hn         1 TGQ       0.487500
     51 H23          4.8590     3.5310    -3.4550 hn         1 TGQ       0.487500
     52 H24          2.1320    -2.9510     3.1360 h1         1 TGQ       0.025700
     53 H25          2.0840    -4.3330     2.0050 h1         1 TGQ       0.025700
     54 H26          3.6320    -3.5570     2.4120 h1         1 TGQ       0.025700
     55 H1           5.7580     1.5430    -2.9140 hn         1 TGQ       0.487000
     56 H2           6.3090    -0.6640    -2.5190 hn         1 TGQ       0.455000
@<TRIPOS>BOND
     1     1     2 2   
     2     1     6 1   
     3     2     3 1   
     4     2    32 1   
     5     3     4 1   
     6     3    55 1   
     7     4     5 2   
     8     4     7 1   
     9     5     6 1   
    10     5    10 1   
    11     6    31 2   
    12     7     8 1   
    13     7    56 1   
    14     8     9 1   
    15     8    34 1   
    16     8    35 1   
    17     9    10 1   
    18     9    11 1   
    19     9    36 1   
    20    10    37 1   
    21    11    12 1   
    22    11    38 1   
    23    11    39 1   
    24    12    13 1   
    25    12    33 1   
    26    13    14 ar  
    27    13    18 ar  
    28    14    15 ar  
    29    14    40 1   
    30    15    16 ar  
    31    15    41 1   
    32    16    17 ar  
    33    16    19 1   
    34    17    18 ar  
    35    17    42 1   
    36    18    43 1   
    37    19    20 1   
    38    19    30 2   
    39    20    21 1   
    40    20    44 1   
    41    21    22 1   
    42    21    25 1   
    43    21    45 1   
    44    22    23 1   
    45    22    24 1   
    46    25    26 1   
    47    25    46 1   
    48    25    47 1   
    49    26    27 1   
    50    26    48 1   
    51    26    49 1   
    52    27    28 1   
    53    27    29 1   
    54    32    50 1   
    55    32    51 1   
    56    33    52 1   
    57    33    53 1   
    58    33    54 1   
@<TRIPOS>SUBSTRUCTURE
     1 TGQ         1 TEMP              0 ****  ****    0 ROOT
