@<TRIPOS>MOLECULE
TGR
   23    23     1     0     0
SMALL
No Charge or Current Charge


@<TRIPOS>ATOM
      1 C1           2.9070     0.9490     0.3430 c3         1 TGR      -0.129100
      2 C2           1.8950    -0.2170     0.2410 c3         1 TGR       0.163300
      3 O2           2.3920    -1.1380    -0.7520 oh         1 TGR      -0.706000
      4 C3           0.4190     0.2160    -0.1090 c5         1 TGR       0.365000
      5 O3           0.4070     0.7330    -1.4390 oh         1 TGR      -0.726000
      6 C4          -0.6810    -0.9090     0.0770 c5         1 TGR       0.165300
      7 O4          -0.6060    -1.5970     1.3480 oh         1 TGR      -0.704000
      8 C5          -1.9560     0.0010    -0.0160 c5         1 TGR       0.099300
      9 O5          -2.2380     0.4230    -1.3660 oh         1 TGR      -0.691000
     10 C6          -1.4870     1.2010     0.8760 c5         1 TGR       0.132600
     11 O6          -0.0370     1.2670     0.7650 os         1 TGR      -0.473000
     12 H1           2.6060     1.6530     1.1280 hc         1 TGR       0.044700
     13 H2           3.9050     0.5720     0.5960 hc         1 TGR       0.044700
     14 H3           2.9760     1.5000    -0.6030 hc         1 TGR       0.044700
     15 H4           1.8640    -0.7070     1.2240 h1         1 TGR       0.101700
     16 H5           2.1100    -0.7480    -1.6140 ho         1 TGR       0.504000
     17 H6          -0.5700     0.7900    -1.6270 ho         1 TGR       0.519000
     18 H7          -0.6440    -1.6310    -0.7520 h1         1 TGR       0.086700
     19 H8          -1.2760    -2.3210     1.3280 ho         1 TGR       0.510000
     20 H9          -2.8360    -0.4980     0.4130 h1         1 TGR       0.040700
     21 H10         -3.2010     0.6470    -1.4100 ho         1 TGR       0.504000
     22 H11         -1.9270     2.1560     0.5600 h1         1 TGR       0.052700
     23 H12         -1.7470     1.0360     1.9310 h1         1 TGR       0.052700
@<TRIPOS>BOND
     1     1     2 1   
     2     1    12 1   
     3     1    13 1   
     4     1    14 1   
     5     2     3 1   
     6     2     4 1   
     7     2    15 1   
     8     3    16 1   
     9     4     5 1   
    10     4     6 1   
    11     4    11 1   
    12     5    17 1   
    13     6     7 1   
    14     6     8 1   
    15     6    18 1   
    16     7    19 1   
    17     8     9 1   
    18     8    10 1   
    19     8    20 1   
    20     9    21 1   
    21    10    11 1   
    22    10    22 1   
    23    10    23 1   
@<TRIPOS>SUBSTRUCTURE
     1 TGR         1 TEMP              0 ****  ****    0 ROOT
