@<TRIPOS>MOLECULE
TGR
   23    23     1     0     0
SMALL
abcg2


@<TRIPOS>ATOM
      1 C1           2.7310     1.0340     0.2470 c3         1 TGR      -0.129100
      2 C2           1.7630    -0.1430     0.2970 c3         1 TGR       0.163300
      3 O2           2.2370    -1.2370    -0.4580 oh         1 TGR      -0.706000
      4 C3           0.3460     0.2300    -0.1670 c5         1 TGR       0.365000
      5 O3           0.3560     0.6430    -1.5040 oh         1 TGR      -0.726000
      6 C4          -0.6850    -0.9050    -0.0740 c5         1 TGR       0.165300
      7 O4          -0.4300    -1.6270     1.1030 oh         1 TGR      -0.704000
      8 C5          -1.9980    -0.1260     0.0590 c5         1 TGR       0.099300
      9 O5          -2.4910     0.1860    -1.2200 oh         1 TGR      -0.691000
     10 C6          -1.5530     1.0930     0.8700 c5         1 TGR       0.132600
     11 O6          -0.1480     1.2340     0.6770 os         1 TGR      -0.473000
     12 H1           2.3750     1.8760     0.8410 hc         1 TGR       0.044700
     13 H2           3.6980     0.7320     0.6490 hc         1 TGR       0.044700
     14 H3           2.9050     1.3890    -0.7720 hc         1 TGR       0.044700
     15 H4           1.7050    -0.4910     1.3290 h1         1 TGR       0.101700
     16 H5           2.2780    -0.9670    -1.3820 ho         1 TGR       0.504000
     17 H6           0.8530     1.4680    -1.5730 ho         1 TGR       0.519000
     18 H7          -0.6730    -1.5410    -0.9650 h1         1 TGR       0.086700
     19 H8          -1.0950    -2.3170     1.1880 ho         1 TGR       0.510000
     20 H9          -2.7320    -0.7130     0.6260 h1         1 TGR       0.040700
     21 H10         -3.3470     0.6120    -1.1160 ho         1 TGR       0.504000
     22 H11         -2.0730     2.0010     0.5520 h1         1 TGR       0.052700
     23 H12         -1.7470     0.9480     1.9350 h1         1 TGR       0.052700
@<TRIPOS>BOND
     1     1     2 1   
     2     1    12 1   
     3     1    13 1   
     4     1    14 1   
     5     2     3 1   
     6     2     4 1   
     7     2    15 1   
     8     3    16 1   
     9     4     5 1   
    10     4     6 1   
    11     4    11 1   
    12     5    17 1   
    13     6     7 1   
    14     6     8 1   
    15     6    18 1   
    16     7    19 1   
    17     8     9 1   
    18     8    10 1   
    19     8    20 1   
    20     9    21 1   
    21    10    11 1   
    22    10    22 1   
    23    10    23 1   
@<TRIPOS>SUBSTRUCTURE
     1 TGR         1 TEMP              0 ****  ****    0 ROOT
