@<TRIPOS>MOLECULE
TGS
   23    22     1     0     0
SMALL
bcc


@<TRIPOS>ATOM
      1 C1           2.1420     1.1230    -1.3570 c3         1 TGS      -0.130100
      2 C2           1.9200     0.6340     0.0740 c3         1 TGS       0.057100
      3 O2           3.1230     0.4010     0.7500 oh         1 TGS      -0.567800
      4 C3           1.1400    -0.6620     0.0900 c          1 TGS       0.550100
      5 O3           1.5700    -1.6610     0.6140 o          1 TGS      -0.487100
      6 C4          -0.2210    -0.7130    -0.5950 c3         1 TGS       0.009100
      7 O4          -0.7810    -1.9850    -0.4400 oh         1 TGS      -0.600800
      8 C5          -1.1580     0.3500    -0.0090 c3         1 TGS       0.140100
      9 O5          -1.2230     0.2380     1.3920 oh         1 TGS      -0.581800
     10 C6          -2.5260     0.2910    -0.6700 c3         1 TGS       0.111400
     11 O6          -3.2790     1.3930    -0.2230 oh         1 TGS      -0.589800
     12 H1           1.2070     1.3820    -1.8520 hc         1 TGS       0.048033
     13 H2           2.7550     2.0250    -1.3430 hc         1 TGS       0.048033
     14 H3           2.6530     0.3700    -1.9590 hc         1 TGS       0.048033
     15 H4           1.3120     1.3830     0.6040 h1         1 TGS       0.062700
     16 H5           3.5850     1.2420     0.8260 ho         1 TGS       0.409000
     17 H6          -0.0660    -0.4910    -1.6610 h1         1 TGS       0.072700
     18 H7          -0.1290    -2.5360     0.0150 ho         1 TGS       0.436000
     19 H8          -0.7340     1.3370    -0.2190 h1         1 TGS       0.082700
     20 H9          -1.5790    -0.6320     1.6090 ho         1 TGS       0.413000
     21 H10         -2.3860     0.3110    -1.7600 h1         1 TGS       0.031700
     22 H11         -3.0150    -0.6600    -0.4260 h1         1 TGS       0.031700
     23 H12         -4.1770     1.2930    -0.5490 ho         1 TGS       0.406000
@<TRIPOS>BOND
     1     1     2 1   
     2     1    12 1   
     3     1    13 1   
     4     1    14 1   
     5     2     3 1   
     6     2     4 1   
     7     2    15 1   
     8     3    16 1   
     9     4     5 2   
    10     4     6 1   
    11     6     7 1   
    12     6     8 1   
    13     6    17 1   
    14     7    18 1   
    15     8     9 1   
    16     8    10 1   
    17     8    19 1   
    18     9    20 1   
    19    10    11 1   
    20    10    21 1   
    21    10    22 1   
    22    11    23 1   
@<TRIPOS>SUBSTRUCTURE
     1 TGS         1 TEMP              0 ****  ****    0 ROOT
