@<TRIPOS>MOLECULE
TGS
   23    22     1     0     0
SMALL
No Charge or Current Charge


@<TRIPOS>ATOM
      1 C1           2.0760     1.1580    -1.3620 c3         1 TGS      -0.130100
      2 C2           1.9820     0.6400     0.0930 c3         1 TGS       0.080300
      3 O2           3.3260     0.5700     0.6270 oh         1 TGS      -0.630000
      4 C3           1.2050    -0.7240     0.2100 c          1 TGS       0.550100
      5 O3           1.7210    -1.7240     0.7070 o          1 TGS      -0.487100
      6 C4          -0.2300    -0.8070    -0.4190 c3         1 TGS       0.032300
      7 O4          -0.8650    -2.1070    -0.2010 oh         1 TGS      -0.723000
      8 C5          -1.1750     0.3170     0.1020 c3         1 TGS       0.163300
      9 O5          -1.4480     0.0670     1.4920 oh         1 TGS      -0.644000
     10 C6          -2.5030     0.3990    -0.7130 c3         1 TGS       0.134600
     11 O6          -3.3000     1.5310    -0.3130 oh         1 TGS      -0.712000
     12 H1           1.0820     1.3560    -1.7800 hc         1 TGS       0.048033
     13 H2           2.6410     2.0970    -1.4060 hc         1 TGS       0.048033
     14 H3           2.5800     0.4250    -2.0050 hc         1 TGS       0.048033
     15 H4           1.4060     1.3730     0.6740 h1         1 TGS       0.062700
     16 H5           3.7170     1.4700     0.5710 ho         1 TGS       0.448000
     17 H6          -0.0890    -0.6460    -1.4960 h1         1 TGS       0.072700
     18 H7          -0.1530    -2.7960    -0.2100 ho         1 TGS       0.535000
     19 H8          -0.6770     1.2890    -0.0160 h1         1 TGS       0.082700
     20 H9          -1.6910    -0.8860     1.5320 ho         1 TGS       0.452000
     21 H10         -2.2550     0.4790    -1.7810 h1         1 TGS       0.031700
     22 H11         -3.0700    -0.5320    -0.5790 h1         1 TGS       0.031700
     23 H12         -4.1460     1.4850    -0.8180 ho         1 TGS       0.505000
@<TRIPOS>BOND
     1     1     2 1   
     2     1    12 1   
     3     1    13 1   
     4     1    14 1   
     5     2     3 1   
     6     2     4 1   
     7     2    15 1   
     8     3    16 1   
     9     4     5 2   
    10     4     6 1   
    11     6     7 1   
    12     6     8 1   
    13     6    17 1   
    14     7    18 1   
    15     8     9 1   
    16     8    10 1   
    17     8    19 1   
    18     9    20 1   
    19    10    11 1   
    20    10    21 1   
    21    10    22 1   
    22    11    23 1   
@<TRIPOS>SUBSTRUCTURE
     1 TGS         1 TEMP              0 ****  ****    0 ROOT
