@<TRIPOS>MOLECULE
TGT
   40    41     1     0     0
SMALL
abcg2


@<TRIPOS>ATOM
      1 C1         132.4620    96.8120    49.3410 c6         1 TGT       0.257300
      2 C2         132.2300    95.5680    50.2170 c6         1 TGT       0.134500
      3 C3         131.7910    96.0590    51.5970 c6         1 TGT       0.103300
      4 C4         132.8730    96.9420    52.2350 c6         1 TGT       0.193300
      5 C5         132.3130    98.2310    52.8840 c6         1 TGT       0.191000
      6 C6         132.8570    99.2060    50.3170 c6         1 TGT       0.117600
      7 C7         133.4410    97.8200    50.0640 c6         1 TGT      -0.001000
      8 C8         131.2170    97.8670    53.9160 c          1 TGT       0.577100
      9 C9         134.7130    97.9410    49.1610 c          1 TGT       0.739000
     10 C11        130.2450    93.3220    53.5620 c3         1 TGT      -0.157100
     11 O1         133.8940    97.2620    51.3120 os         1 TGT      -0.431000
     12 O2         133.4210    98.8460    53.5210 oh         1 TGT      -0.720000
     13 O3         130.0420    97.7060    53.6020 o          1 TGT      -0.578100
     14 O4         134.6780    98.8350    48.2830 o          1 TGT      -0.720000
     15 O5         135.6260    97.1060    49.3460 o          1 TGT      -0.720000
     16 O6         131.2070    97.3700    49.0320 os         1 TGT      -0.593400
     17 O7         129.2690    97.5920    47.4820 o          1 TGT      -0.930500
     18 O8         131.5530    96.8930    46.5410 o          1 TGT      -0.930500
     19 O9         131.1670    99.2930    47.3400 o          1 TGT      -0.930500
     20 O10        131.5600    94.9590    52.5130 os         1 TGT      -0.489100
     21 O11        129.4600    94.6940    51.7430 o          1 TGT      -0.444000
     22 N1         131.6830    97.7030    55.1620 nt         1 TGT      -0.627000
     23 N2         133.3880    94.6730    50.1980 n8         1 TGT      -0.992200
     24 P1         130.7740    97.8230    47.4650 p5         1 TGT       1.286900
     25 S1         131.5540    99.2890    51.6020 ss         1 TGT      -0.455000
     26 H1         132.9360    96.4750    48.4190 h1         1 TGT       0.104700
     27 H2         131.3900    95.0340    49.7730 h1         1 TGT       0.083700
     28 H3         130.8600    96.6030    51.4860 h1         1 TGT       0.138700
     29 H4         133.3710    96.3770    53.0250 h1         1 TGT       0.039700
     30 H61        133.6610    99.8840    50.5940 h1         1 TGT       0.105700
     31 H62        132.3680    99.5690    49.4160 h1         1 TGT       0.105700
     32 H111       129.2920    92.8070    53.4780 hc         1 TGT       0.042033
     33 H112       131.0670    92.6120    53.4630 hc         1 TGT       0.042033
     34 H113       130.3270    93.7870    54.5460 hc         1 TGT       0.042033
     35 HO2        133.1830    99.7600    53.7280 ho         1 TGT       0.486000
     36 HN11       132.6470    97.8950    55.3770 hn         1 TGT       0.296000
     37 HN12       131.0490    97.4410    55.9010 hn         1 TGT       0.296000
     38 HN21       133.2270    93.8940    50.8280 hn         1 TGT       0.379500
     39 HN22       134.2050    95.1710    50.5370 hn         1 TGT       0.379500
     40 C10        130.3470    94.3810    52.5050 c          1 TGT       0.580100
@<TRIPOS>BOND
     1     1     2 1   
     2     1     7 1   
     3     1    16 1   
     4     1    26 1   
     5     2     3 1   
     6     2    23 1   
     7     2    27 1   
     8     3     4 1   
     9     3    20 1   
    10     3    28 1   
    11     4     5 1   
    12     4    11 1   
    13     4    29 1   
    14     5     8 1   
    15     5    12 1   
    16     5    25 1   
    17     6     7 1   
    18     6    25 1   
    19     6    30 1   
    20     6    31 1   
    21     7     9 1   
    22     7    11 1   
    23     8    13 2   
    24     8    22 1   
    25     9    14 1   
    26     9    15 1   
    27    10    32 1   
    28    10    33 1   
    29    10    34 1   
    30    10    40 1   
    31    12    35 1   
    32    16    24 1   
    33    17    24 1   
    34    18    24 1   
    35    19    24 1   
    36    20    40 1   
    37    21    40 2   
    38    22    36 1   
    39    22    37 1   
    40    23    38 1   
    41    23    39 1   
@<TRIPOS>SUBSTRUCTURE
     1 TGT         1 TEMP              0 ****  ****    0 ROOT
