@<TRIPOS>MOLECULE
TGT
   40    41     1     0     0
SMALL
No Charge or Current Charge


@<TRIPOS>ATOM
      1 C1         132.6510    97.1170    49.3580 c6         1 TGT       0.257300
      2 C2         132.2980    95.8280    50.2020 c6         1 TGT       0.134500
      3 C3         131.8310    96.2250    51.6450 c6         1 TGT       0.103300
      4 C4         132.8470    97.2090    52.3400 c6         1 TGT       0.193300
      5 C5         132.1900    98.5180    52.9300 c6         1 TGT       0.191000
      6 C6         132.9170    99.5070    50.3990 c6         1 TGT       0.117600
      7 C7         133.5950    98.1090    50.1540 c6         1 TGT      -0.001000
      8 C8         131.1010    98.2400    54.0600 c          1 TGT       0.577100
      9 C9         134.8640    98.2810    49.2340 c          1 TGT       0.739000
     10 C11        130.7420    92.9730    53.2490 c3         1 TGT      -0.157100
     11 O1         133.9610    97.5130    51.4500 os         1 TGT      -0.431000
     12 O2         133.2120    99.3680    53.4990 oh         1 TGT      -0.720000
     13 O3         130.4730    99.1440    54.5930 o          1 TGT      -0.578100
     14 O4         135.1290    99.4090    48.8350 o          1 TGT      -0.720000
     15 O5         135.7630    97.4600    49.3710 o          1 TGT      -0.720000
     16 O6         131.5040    97.7960    48.7880 os         1 TGT      -0.593400
     17 O7         129.8150    98.0330    46.9390 o          1 TGT      -0.930500
     18 O8         129.4500    96.3140    48.6080 o          1 TGT      -0.930500
     19 O9         131.2370    96.0700    46.9640 o          1 TGT      -0.930500
     20 O10        131.6770    95.0390    52.4790 os         1 TGT      -0.489100
     21 O11        129.7410    94.3050    51.4860 o          1 TGT      -0.444000
     22 N1         130.8840    96.9700    54.4880 nt         1 TGT      -0.627000
     23 N2         133.4470    94.8660    50.2790 n8         1 TGT      -0.992200
     24 P1         130.4810    97.0290    47.8120 p5         1 TGT       1.286900
     25 S1         131.4580    99.5230    51.5640 ss         1 TGT      -0.455000
     26 H1         133.2220    96.7360    48.4970 h1         1 TGT       0.104700
     27 H2         131.4800    95.2780    49.7190 h1         1 TGT       0.083700
     28 H3         130.8570    96.7310    51.5540 h1         1 TGT       0.138700
     29 H4         133.2900    96.6710    53.1900 h1         1 TGT       0.039700
     30 H61        133.6690   100.1850    50.8270 h1         1 TGT       0.105700
     31 H62        132.6020    99.9520    49.4440 h1         1 TGT       0.105700
     32 H111       129.9180    92.2610    53.1280 hc         1 TGT       0.042033
     33 H112       131.7180    92.4920    53.1180 hc         1 TGT       0.042033
     34 H113       130.8070    93.3480    54.2770 hc         1 TGT       0.042033
     35 HO2        132.7410   100.1770    53.8000 ho         1 TGT       0.486000
     36 HN11       131.3800    96.1950    54.0660 hn         1 TGT       0.296000
     37 HN12       130.2050    96.8070    55.2170 hn         1 TGT       0.296000
     38 HN21       133.2750    94.2590    51.0880 hn         1 TGT       0.379500
     39 HN22       134.2710    95.4090    50.5670 hn         1 TGT       0.379500
     40 C10        130.6430    94.1580    52.2950 c          1 TGT       0.580100
@<TRIPOS>BOND
     1     1     2 1   
     2     1     7 1   
     3     1    16 1   
     4     1    26 1   
     5     2     3 1   
     6     2    23 1   
     7     2    27 1   
     8     3     4 1   
     9     3    20 1   
    10     3    28 1   
    11     4     5 1   
    12     4    11 1   
    13     4    29 1   
    14     5     8 1   
    15     5    12 1   
    16     5    25 1   
    17     6     7 1   
    18     6    25 1   
    19     6    30 1   
    20     6    31 1   
    21     7     9 1   
    22     7    11 1   
    23     8    13 2   
    24     8    22 1   
    25     9    14 1   
    26     9    15 1   
    27    10    32 1   
    28    10    33 1   
    29    10    34 1   
    30    10    40 1   
    31    12    35 1   
    32    16    24 1   
    33    17    24 1   
    34    18    24 1   
    35    19    24 1   
    36    20    40 1   
    37    21    40 2   
    38    22    36 1   
    39    22    37 1   
    40    23    38 1   
    41    23    39 1   
@<TRIPOS>SUBSTRUCTURE
     1 TGT         1 TEMP              0 ****  ****    0 ROOT
