@<TRIPOS>MOLECULE
TGV
   40    43     1     0     0
SMALL
bcc


@<TRIPOS>ATOM
      1 C10         10.4140    -4.3230  -101.3700 cc         1 TGV       0.088400
      2 C13         10.6770    -1.8450  -104.1740 ca         1 TGV      -0.141000
      3 C15          9.5520    -0.7850  -102.3390 ca         1 TGV      -0.141000
      4 C21         10.8730    -7.8850   -98.7670 cc         1 TGV       0.304200
      5 C22         10.7660    -6.5390   -98.6400 cd         1 TGV      -0.133600
      6 C24          9.4360    -1.9330   -97.5640 ca         1 TGV      -0.187000
      7 C04          7.0980    -2.1160   -96.9970 ca         1 TGV      -0.117600
      8 C05          7.0590    -3.2800   -97.7600 ca         1 TGV      -0.109000
      9 C06          8.1720    -3.7840   -98.4160 ca         1 TGV      -0.230000
     10 C07          9.3830    -3.1040   -98.3170 ca         1 TGV       0.064600
     11 C09         10.5040    -4.4630   -99.9910 cd         1 TGV       0.102900
     12 C11         10.2850    -3.0780  -102.1330 ca         1 TGV      -0.014800
     13 C12         10.7860    -3.0120  -103.4340 ca         1 TGV      -0.105000
     14 C14         10.0610    -0.7250  -103.6290 ca         1 TGV      -0.140000
     15 C16          9.6620    -1.9500  -101.5950 ca         1 TGV      -0.105000
     16 C18         10.6210    -6.4140  -101.0190 cd         1 TGV      -0.176600
     17 C19         10.7350    -7.8200  -101.0480 cd         1 TGV       0.443200
     18 C25          8.3150    -1.4230   -96.9170 ca         1 TGV      -0.053600
     19 N08         10.5430    -3.5640   -98.9440 nu         1 TGV      -0.650400
     20 N17         10.4990    -5.5240  -101.9840 nc         1 TGV      -0.281600
     21 N20         10.8560    -8.5310   -99.9640 nc         1 TGV      -0.677000
     22 N23         10.6360    -5.8080   -99.7820 na         1 TGV       0.038700
     23 O01          6.0360    -1.0670   -95.1700 o          1 TGV      -0.834300
     24 O03          4.7550    -2.0550   -96.7030 o          1 TGV      -0.834300
     25 O27          7.8830     0.8790   -96.7800 o          1 TGV      -0.838800
     26 O28          9.2890    -0.0220   -95.2930 o          1 TGV      -0.838800
     27 H1          11.0770    -1.8080  -105.1790 ha         1 TGV       0.127000
     28 H2           9.0610     0.0780  -101.9070 ha         1 TGV       0.127000
     29 H3          10.9780    -8.4980   -97.8820 h4         1 TGV       0.022100
     30 H4          10.7770    -6.0080   -97.7000 h4         1 TGV       0.198000
     31 H5          10.3770    -1.3950   -97.5040 ha         1 TGV       0.110000
     32 H6           6.1240    -3.8210   -97.8400 ha         1 TGV       0.125000
     33 H7           8.0880    -4.6940   -98.9980 ha         1 TGV       0.089000
     34 H8          11.2730    -3.8770  -103.8650 ha         1 TGV       0.156500
     35 H9           9.9760     0.1860  -104.2060 ha         1 TGV       0.114000
     36 H10          9.2340    -1.9780  -100.6030 ha         1 TGV       0.156500
     37 H11         10.7230    -8.3250  -102.0070 h4         1 TGV       0.026100
     38 H12         11.3150    -2.9130   -98.9600 hn         1 TGV       0.424800
     39 C02          5.8540    -1.6970   -96.2290 c          1 TGV       0.931200
     40 C26          8.4890    -0.0670   -96.2460 c          1 TGV       0.960200
@<TRIPOS>BOND
     1     1    11 2   
     2     1    12 1   
     3     1    20 1   
     4     2    13 ar  
     5     2    14 ar  
     6     2    27 1   
     7     3    14 ar  
     8     3    15 ar  
     9     3    28 1   
    10     4     5 2   
    11     4    21 1   
    12     4    29 1   
    13     5    22 1   
    14     5    30 1   
    15     6    10 ar  
    16     6    18 ar  
    17     6    31 1   
    18     7     8 ar  
    19     7    18 ar  
    20     7    39 1   
    21     8     9 ar  
    22     8    32 1   
    23     9    10 ar  
    24     9    33 1   
    25    10    19 1   
    26    11    19 1   
    27    11    22 1   
    28    12    13 ar  
    29    12    15 ar  
    30    13    34 1   
    31    14    35 1   
    32    15    36 1   
    33    16    17 1   
    34    16    20 2   
    35    16    22 1   
    36    17    21 2   
    37    17    37 1   
    38    18    40 1   
    39    19    38 1   
    40    23    39 1   
    41    24    39 1   
    42    25    40 1   
    43    26    40 1   
@<TRIPOS>SUBSTRUCTURE
     1 TGV         1 TEMP              0 ****  ****    0 ROOT
