@<TRIPOS>MOLECULE
TGV
   40    43     1     0     0
SMALL
No Charge or Current Charge


@<TRIPOS>ATOM
      1 C10         10.4000    -4.2810  -101.7070 cc         1 TGV       0.088400
      2 C13         11.6180    -1.8890  -104.3790 ca         1 TGV      -0.123000
      3 C15          9.6590    -0.9200  -103.3170 ca         1 TGV      -0.123000
      4 C21         10.4110    -7.4240   -98.6180 cc         1 TGV       0.238900
      5 C22         10.1790    -6.0530   -98.7170 cd         1 TGV      -0.101000
      6 C24          9.1340    -1.8140   -97.6360 ca         1 TGV      -0.169000
      7 C04          7.2050    -2.4600   -96.2810 ca         1 TGV      -0.117600
      8 C05          7.0110    -3.5710   -97.1290 ca         1 TGV      -0.091000
      9 C06          7.8740    -3.8020   -98.2120 ca         1 TGV      -0.212000
     10 C07          8.9490    -2.9340   -98.4590 ca         1 TGV       0.203000
     11 C09         10.0550    -4.2260  -100.3650 cd         1 TGV       0.102900
     12 C11         10.5140    -3.0820  -102.5480 ca         1 TGV      -0.014800
     13 C12         11.5230    -3.0080  -103.5320 ca         1 TGV      -0.087000
     14 C14         10.6900    -0.8420  -104.2670 ca         1 TGV      -0.122000
     15 C16          9.5650    -2.0390  -102.4700 ca         1 TGV      -0.087000
     16 C18         10.5390    -6.3130  -101.0660 cd         1 TGV      -0.162000
     17 C19         10.7910    -7.7030  -100.8980 cd         1 TGV       0.377900
     18 C25          8.2710    -1.5610   -96.5440 ca         1 TGV      -0.053600
     19 N08          9.8120    -3.1350   -99.5360 nu         1 TGV      -0.844000
     20 N17         10.6970    -5.5570  -102.1420 nc         1 TGV      -0.281600
     21 N20         10.6920    -8.2700   -99.6930 nc         1 TGV      -0.677000
     22 N23         10.1040    -5.5640  -100.0170 na         1 TGV       0.140100
     23 O01          6.7860    -2.1920   -93.9840 o          1 TGV      -0.729000
     24 O03          5.0790    -2.2950   -95.2930 o          1 TGV      -0.729000
     25 O27          7.5710     0.4910   -95.6180 o          1 TGV      -0.733500
     26 O28          9.5990    -0.1230   -95.2300 o          1 TGV      -0.733500
     27 H1          12.4090    -1.8370  -105.1240 ha         1 TGV       0.109000
     28 H2           8.9270    -0.1190  -103.2420 ha         1 TGV       0.109000
     29 H3          10.4130    -7.9220   -97.6570 h4         1 TGV       0.022100
     30 H4          10.0100    -5.3830   -97.8870 h4         1 TGV       0.180000
     31 H5           9.9500    -1.1260   -97.8390 ha         1 TGV       0.092000
     32 H6           6.1900    -4.2600   -96.9400 ha         1 TGV       0.107000
     33 H7           7.6940    -4.6560   -98.8590 ha         1 TGV       0.071000
     34 H8          12.2460    -3.8150  -103.6320 ha         1 TGV       0.138500
     35 H9          10.7610     0.0220  -104.9240 ha         1 TGV       0.096000
     36 H10          8.7420    -2.0970  -101.7610 ha         1 TGV       0.138500
     37 H11         11.1000    -8.3600  -101.7020 h4         1 TGV       0.026100
     38 H12         10.2990    -2.2870   -99.8330 hn         1 TGV       0.480000
     39 C02          6.2860    -2.2600   -95.0980 c          1 TGV       0.720600
     40 C26          8.4840    -0.3210   -95.6980 c          1 TGV       0.749600
@<TRIPOS>BOND
     1     1    11 2   
     2     1    12 1   
     3     1    20 1   
     4     2    13 ar  
     5     2    14 ar  
     6     2    27 1   
     7     3    14 ar  
     8     3    15 ar  
     9     3    28 1   
    10     4     5 2   
    11     4    21 1   
    12     4    29 1   
    13     5    22 1   
    14     5    30 1   
    15     6    10 ar  
    16     6    18 ar  
    17     6    31 1   
    18     7     8 ar  
    19     7    18 ar  
    20     7    39 1   
    21     8     9 ar  
    22     8    32 1   
    23     9    10 ar  
    24     9    33 1   
    25    10    19 1   
    26    11    19 1   
    27    11    22 1   
    28    12    13 ar  
    29    12    15 ar  
    30    13    34 1   
    31    14    35 1   
    32    15    36 1   
    33    16    17 1   
    34    16    20 2   
    35    16    22 1   
    36    17    21 2   
    37    17    37 1   
    38    18    40 1   
    39    19    38 1   
    40    23    39 1   
    41    24    39 1   
    42    25    40 1   
    43    26    40 1   
@<TRIPOS>SUBSTRUCTURE
     1 TGV         1 TEMP              0 ****  ****    0 ROOT
