@<TRIPOS>MOLECULE
TGW
   31    33     1     0     0
SMALL
bcc


@<TRIPOS>ATOM
      1 CL1          1.3350    -3.2020     0.7440 cl         1 TGW      -0.107400
      2 CAB          1.6340    -1.4940     0.6840 ca         1 TGW       0.046400
      3 CAC          2.9530    -1.0790     0.6070 ca         1 TGW      -0.116000
      4 CAD          3.2160     0.2800     0.5600 ca         1 TGW       0.042400
      5 CL2          4.8560     0.8160     0.4640 cl         1 TGW      -0.092400
      6 CAF          2.1890     1.2070     0.5960 ca         1 TGW      -0.120000
      7 CAG          0.8810     0.7570     0.6780 ca         1 TGW      -0.088000
      8 CAH          0.5690    -0.5970     0.7180 ca         1 TGW      -0.142300
      9 CAI         -0.8760    -1.0950     0.7810 c6         1 TGW       0.476200
     10 NAJ         -1.2960    -1.6570    -0.4830 ns         1 TGW      -0.576900
     11 CAK         -1.7730    -0.9080    -1.5030 c          1 TGW       0.736100
     12 OAL         -1.8510    -1.3260    -2.6480 o          1 TGW      -0.625500
     13 CAM         -2.2830     0.4080    -1.0880 ca         1 TGW      -0.342900
     14 CAN         -2.8230     1.2880    -2.0110 ca         1 TGW       0.005000
     15 CAO         -3.4360     2.4510    -1.5740 ca         1 TGW      -0.316300
     16 CAP         -3.5110     2.6540    -0.2040 ca         1 TGW       0.473200
     17 NAQ         -2.9990     1.8340     0.7020 nb         1 TGW      -0.755000
     18 CAR         -2.3640     0.7430     0.2810 ca         1 TGW       0.716200
     19 NAS         -1.7890    -0.0700     1.2050 nh         1 TGW      -0.797300
     20 CAT         -1.8900     0.1570     2.6320 c3         1 TGW       0.218100
     21 HAC          3.7560    -1.8030     0.5870 ha         1 TGW       0.166000
     22 HAF          2.3980     2.2670     0.5640 ha         1 TGW       0.156000
     23 HAG          0.0940     1.4970     0.7200 ha         1 TGW       0.151000
     24 HAI         -0.9280    -1.9000     1.5170 h2         1 TGW       0.083700
     25 HAJ         -0.9560    -2.5810    -0.7090 hn         1 TGW       0.332500
     26 HAN         -2.7770     1.0480    -3.0660 ha         1 TGW       0.159000
     27 HAO         -3.8640     3.1640    -2.2630 ha         1 TGW       0.149000
     28 HAP         -4.0160     3.5300     0.1860 h4         1 TGW       0.018100
     29 HAT1        -0.9200     0.0000     3.1030 h1         1 TGW       0.050700
     30 HAT2        -2.2040     1.1770     2.8280 h1         1 TGW       0.050700
     31 HAT3        -2.6090    -0.5270     3.0870 h1         1 TGW       0.050700
@<TRIPOS>BOND
     1     1     2 1   
     2     2     3 ar  
     3     2     8 ar  
     4     3     4 ar  
     5     3    21 1   
     6     4     5 1   
     7     4     6 ar  
     8     6     7 ar  
     9     6    22 1   
    10     7     8 ar  
    11     7    23 1   
    12     8     9 1   
    13     9    10 1   
    14     9    19 1   
    15     9    24 1   
    16    10    11 1   
    17    10    25 1   
    18    11    12 2   
    19    11    13 1   
    20    13    14 ar  
    21    13    18 ar  
    22    14    15 ar  
    23    14    26 1   
    24    15    16 ar  
    25    15    27 1   
    26    16    17 ar  
    27    16    28 1   
    28    17    18 ar  
    29    18    19 1   
    30    19    20 1   
    31    20    29 1   
    32    20    30 1   
    33    20    31 1   
@<TRIPOS>SUBSTRUCTURE
     1 TGW         1 TEMP              0 ****  ****    0 ROOT
