@<TRIPOS>MOLECULE
TGW
   31    33     1     0     0
SMALL
No Charge or Current Charge


@<TRIPOS>ATOM
      1 Cl1          1.2310    -2.8890     2.1690 cl         1 TGW      -0.199000
      2 CAB          1.6370    -1.3890     1.3360 ca         1 TGW       0.138000
      3 CAC          2.9600    -0.9250     1.4250 ca         1 TGW      -0.098000
      4 CAD          3.3360     0.2630     0.7830 ca         1 TGW       0.134000
      5 Cl2          4.9950     0.8380     0.8990 cl         1 TGW      -0.184000
      6 CAF          2.3920     0.9940     0.0490 ca         1 TGW      -0.102000
      7 CAG          1.0670     0.5360    -0.0440 ca         1 TGW      -0.070000
      8 CAH          0.6730    -0.6620     0.5980 ca         1 TGW      -0.142300
      9 CAI         -0.7800    -1.1440     0.4880 c6         1 TGW       0.476200
     10 NAJ         -1.0850    -1.4390    -0.8920 ns         1 TGW      -0.509900
     11 CAK         -1.8320    -0.6760    -1.7340 c          1 TGW       0.593600
     12 OAL         -1.9460    -0.9810    -2.9090 o          1 TGW      -0.550000
     13 CAM         -2.4910     0.5100    -1.1500 ca         1 TGW      -0.277600
     14 CAN         -3.2160     1.4170    -1.9420 ca         1 TGW       0.023000
     15 CAO         -3.8220     2.5040    -1.3000 ca         1 TGW      -0.233000
     16 CAP         -3.6870     2.6360     0.0890 ca         1 TGW       0.407900
     17 NAQ         -2.9940     1.7570     0.8430 nb         1 TGW      -0.755000
     18 CAR         -2.4080     0.7180     0.2240 ca         1 TGW       0.650900
     19 NAS         -1.7110    -0.1640     1.0550 nh         1 TGW      -0.797300
     20 CAT         -1.7300    -0.0410     2.5330 c3         1 TGW       0.218100
     21 HAC          3.6950    -1.4880     1.9930 ha         1 TGW       0.148000
     22 HAF          2.6850     1.9160    -0.4470 ha         1 TGW       0.138000
     23 HAG          0.3450     1.1170    -0.6140 ha         1 TGW       0.133000
     24 HAI         -0.9010    -2.0810     1.0520 h2         1 TGW       0.083700
     25 HAJ         -0.6450    -2.2500    -1.3040 hn         1 TGW       0.332500
     26 HAN         -3.3070     1.2870    -3.0200 ha         1 TGW       0.141000
     27 HAO         -4.3920     3.2370    -1.8630 ha         1 TGW       0.131000
     28 HAP         -4.1500     3.4700     0.6150 h4         1 TGW       0.018100
     29 HAT1        -1.2080    -0.8830     3.0080 h1         1 TGW       0.050700
     30 HAT2        -1.2320     0.8860     2.8490 h1         1 TGW       0.050700
     31 HAT3        -2.7620    -0.0360     2.9080 h1         1 TGW       0.050700
@<TRIPOS>BOND
     1     1     2 1   
     2     2     3 ar  
     3     2     8 ar  
     4     3     4 ar  
     5     3    21 1   
     6     4     5 1   
     7     4     6 ar  
     8     6     7 ar  
     9     6    22 1   
    10     7     8 ar  
    11     7    23 1   
    12     8     9 1   
    13     9    10 1   
    14     9    19 1   
    15     9    24 1   
    16    10    11 1   
    17    10    25 1   
    18    11    12 2   
    19    11    13 1   
    20    13    14 ar  
    21    13    18 ar  
    22    14    15 ar  
    23    14    26 1   
    24    15    16 ar  
    25    15    27 1   
    26    16    17 ar  
    27    16    28 1   
    28    17    18 ar  
    29    18    19 1   
    30    19    20 1   
    31    20    29 1   
    32    20    30 1   
    33    20    31 1   
@<TRIPOS>SUBSTRUCTURE
     1 TGW         1 TEMP              0 ****  ****    0 ROOT
