@<TRIPOS>MOLECULE
TGX
   21    22     1     0     0
SMALL
No Charge or Current Charge


@<TRIPOS>ATOM
      1 O13         -3.5670    -1.0000     0.3120 o          1 TGX      -0.528000
      2 C11         -2.4790    -0.5300     0.0030 c          1 TGX       0.577000
      3 C12         -2.3480     0.8800    -0.5780 c6         1 TGX      -0.054400
      4 N10         -1.3120    -1.2620     0.1080 ns         1 TGX      -0.149000
      5 C7           0.0310    -0.8220     0.0320 ca         1 TGX      -0.017000
      6 C3           0.3580     0.5510     0.0420 ca         1 TGX      -0.151000
      7 C9           1.0610    -1.7770    -0.0190 ca         1 TGX      -0.145000
      8 C5           2.4060    -1.3720    -0.0700 ca         1 TGX      -0.075000
      9 C2           2.7340    -0.0040    -0.0580 ca         1 TGX      -0.093300
     10 C6           4.1890     0.4370    -0.1110 c3         1 TGX      -0.044800
     11 C1           1.7040     0.9540     0.0000 ca         1 TGX      -0.056000
     12 S8          -0.9200     1.7960     0.1450 ss         1 TGX      -0.128000
     13 H121        -2.1870     0.7760    -1.6580 h1         1 TGX       0.102200
     14 H122        -3.2780     1.4320    -0.3920 h1         1 TGX       0.102200
     15 H10         -1.4330    -2.2260     0.3920 hn         1 TGX       0.164000
     16 H9           0.8210    -2.8390    -0.0210 ha         1 TGX       0.119000
     17 H1           1.9500     2.0140     0.0130 ha         1 TGX       0.126000
     18 H5           3.1920    -2.1230    -0.1140 ha         1 TGX       0.117000
     19 H61C         4.5150     0.5860    -1.1470 hc         1 TGX       0.044033
     20 H62C         4.3410     1.3800     0.4270 hc         1 TGX       0.044033
     21 H63C         4.8510    -0.3100     0.3440 hc         1 TGX       0.044033
@<TRIPOS>BOND
     1     1     2 2   
     2     2     3 1   
     3     2     4 1   
     4     3    12 1   
     5     3    13 1   
     6     3    14 1   
     7     4     5 1   
     8     4    15 1   
     9     5     6 ar  
    10     5     7 ar  
    11     6    11 ar  
    12     6    12 1   
    13     7     8 ar  
    14     7    16 1   
    15     8     9 ar  
    16     8    18 1   
    17     9    10 1   
    18     9    11 ar  
    19    10    19 1   
    20    10    20 1   
    21    10    21 1   
    22    11    17 1   
@<TRIPOS>SUBSTRUCTURE
     1 TGX         1 TEMP              0 ****  ****    0 ROOT
