@<TRIPOS>MOLECULE
TGX
   21    22     1     0     0
SMALL
abcg2


@<TRIPOS>ATOM
      1 O13         -3.5470    -1.0090     0.1090 o          1 TGX      -0.528000
      2 C11         -2.4350    -0.5410    -0.0400 c          1 TGX       0.577000
      3 C12         -2.2020     0.8340    -0.6170 c6         1 TGX      -0.054400
      4 N10         -1.3120    -1.2380     0.2710 ns         1 TGX      -0.149000
      5 C7           0.0100    -0.8160     0.1240 ca         1 TGX      -0.017000
      6 C3           0.3400     0.5410     0.1300 ca         1 TGX      -0.151000
      7 C9           1.0300    -1.7540     0.0140 ca         1 TGX      -0.145000
      8 C5           2.3530    -1.3460    -0.0620 ca         1 TGX      -0.075000
      9 C2           2.6960     0.0030    -0.0530 ca         1 TGX      -0.093300
     10 C6           4.1250     0.4470    -0.1730 c3         1 TGX      -0.044800
     11 C1           1.6680     0.9370     0.0350 ca         1 TGX      -0.056000
     12 S8          -0.9410     1.7290     0.3190 ss         1 TGX      -0.128000
     13 H121        -1.9010     0.7530    -1.6650 h1         1 TGX       0.102200
     14 H122        -3.1230     1.4110    -0.5680 h1         1 TGX       0.102200
     15 H10         -1.4560    -2.1960     0.5630 hn         1 TGX       0.164000
     16 H9           0.7890    -2.8090     0.0010 ha         1 TGX       0.119000
     17 H1           1.9000     1.9960     0.0300 ha         1 TGX       0.126000
     18 H5           3.1290    -2.0980    -0.1360 ha         1 TGX       0.117000
     19 H61C         4.3470     0.7830    -1.1880 hc         1 TGX       0.044033
     20 H62C         4.3450     1.2780     0.4970 hc         1 TGX       0.044033
     21 H63C         4.8140    -0.3630     0.0600 hc         1 TGX       0.044033
@<TRIPOS>BOND
     1     1     2 2   
     2     2     3 1   
     3     2     4 1   
     4     3    12 1   
     5     3    13 1   
     6     3    14 1   
     7     4     5 1   
     8     4    15 1   
     9     5     6 ar  
    10     5     7 ar  
    11     6    11 ar  
    12     6    12 1   
    13     7     8 ar  
    14     7    16 1   
    15     8     9 ar  
    16     8    18 1   
    17     9    10 1   
    18     9    11 ar  
    19    10    19 1   
    20    10    20 1   
    21    10    21 1   
    22    11    17 1   
@<TRIPOS>SUBSTRUCTURE
     1 TGX         1 TEMP              0 ****  ****    0 ROOT
