@<TRIPOS>MOLECULE
TGY
   23    23     1     0     0
SMALL
No Charge or Current Charge


@<TRIPOS>ATOM
      1 C5          -9.2840    27.7090    64.7970 c6         1 TGY       0.145300
      2 C6          -9.7100    28.3130    63.4290 c6         1 TGY       0.163600
      3 C2         -12.0430    27.6810    63.7600 c6         1 TGY       0.413000
      4 C4         -10.4810    27.7470    65.7980 c6         1 TGY       0.091300
      5 C1         -13.1680    26.9240    63.0090 c3         1 TGY      -0.102100
      6 O2         -12.4290    29.0510    63.8660 oh         1 TGY      -0.747000
      7 C3         -11.7310    27.0480    65.1800 c6         1 TGY       0.093300
      8 O3         -11.4520    25.6330    65.1390 oh         1 TGY      -0.701000
      9 O4         -10.1090    27.1000    67.0380 oh         1 TGY      -0.732000
     10 O5          -8.1600    28.4030    65.3670 oh         1 TGY      -0.716000
     11 O6         -10.8790    27.6230    62.9120 os         1 TGY      -0.424000
     12 H5          -9.0110    26.6580    64.6210 h1         1 TGY       0.060700
     13 H61         -8.8890    28.2040    62.7070 h1         1 TGY       0.069200
     14 H62         -9.9240    29.3860    63.5330 h1         1 TGY       0.069200
     15 H4         -10.7350    28.8030    65.9840 h1         1 TGY       0.062700
     16 H11        -14.0890    26.8870    63.6020 hc         1 TGY       0.056033
     17 H12        -13.4020    27.4070    62.0530 hc         1 TGY       0.056033
     18 H7         -12.8730    25.8910    62.7930 hc         1 TGY       0.056033
     19 HO2        -13.3310    29.0470    64.2560 ho         1 TGY       0.517000
     20 H3         -12.5930    27.2290    65.8390 h1         1 TGY       0.025700
     21 HO3        -10.8430    25.4940    65.9060 ho         1 TGY       0.517000
     22 HO4        -10.7080    27.4460    67.7440 ho         1 TGY       0.510000
     23 HO5         -8.1630    28.1310    66.3170 ho         1 TGY       0.517000
@<TRIPOS>BOND
     1     1     2 1   
     2     1     4 1   
     3     1    10 1   
     4     1    12 1   
     5     2    11 1   
     6     2    13 1   
     7     2    14 1   
     8     3     5 1   
     9     3     6 1   
    10     3     7 1   
    11     3    11 1   
    12     4     7 1   
    13     4     9 1   
    14     4    15 1   
    15     5    16 1   
    16     5    17 1   
    17     5    18 1   
    18     6    19 1   
    19     7     8 1   
    20     7    20 1   
    21     8    21 1   
    22     9    22 1   
    23    10    23 1   
@<TRIPOS>SUBSTRUCTURE
     1 TGY         1 TEMP              0 ****  ****    0 ROOT
