@<TRIPOS>MOLECULE
TGY
   23    23     1     0     0
SMALL
abcg2


@<TRIPOS>ATOM
      1 C5          -9.3300    27.7270    64.8340 c6         1 TGY       0.145300
      2 C6          -9.7450    28.3000    63.4850 c6         1 TGY       0.163600
      3 C2         -12.0250    27.6640    63.7640 c6         1 TGY       0.413000
      4 C4         -10.5160    27.7820    65.7840 c6         1 TGY       0.091300
      5 C1         -13.0950    26.8760    63.0230 c3         1 TGY      -0.102100
      6 O2         -12.4030    29.0140    63.9060 oh         1 TGY      -0.747000
      7 C3         -11.7260    27.0810    65.1580 c6         1 TGY       0.093300
      8 O3         -11.4960    25.7020    65.0260 oh         1 TGY      -0.701000
      9 O4         -10.1370    27.1450    66.9890 oh         1 TGY      -0.732000
     10 O5          -8.2440    28.4980    65.2910 oh         1 TGY      -0.716000
     11 O6         -10.8820    27.6450    62.9620 os         1 TGY      -0.424000
     12 H5          -9.0340    26.6780    64.6970 h1         1 TGY       0.060700
     13 H61         -8.9470    28.1530    62.7550 h1         1 TGY       0.069200
     14 H62         -9.9080    29.3790    63.5830 h1         1 TGY       0.069200
     15 H4         -10.7670    28.8340    65.9610 h1         1 TGY       0.062700
     16 H11        -14.0100    26.8290    63.6150 hc         1 TGY       0.056033
     17 H12        -13.3280    27.3680    62.0780 hc         1 TGY       0.056033
     18 H7         -12.7780    25.8570    62.8120 hc         1 TGY       0.056033
     19 HO2        -13.2030    29.0650    64.4410 ho         1 TGY       0.517000
     20 H3         -12.6070    27.2660    65.7960 h1         1 TGY       0.025700
     21 HO3        -11.1380    25.3890    65.8650 ho         1 TGY       0.517000
     22 HO4        -10.7340    27.4270    67.6900 ho         1 TGY       0.510000
     23 HO5         -7.9560    28.1370    66.1350 ho         1 TGY       0.517000
@<TRIPOS>BOND
     1     1     2 1   
     2     1     4 1   
     3     1    10 1   
     4     1    12 1   
     5     2    11 1   
     6     2    13 1   
     7     2    14 1   
     8     3     5 1   
     9     3     6 1   
    10     3     7 1   
    11     3    11 1   
    12     4     7 1   
    13     4     9 1   
    14     4    15 1   
    15     5    16 1   
    16     5    17 1   
    17     5    18 1   
    18     6    19 1   
    19     7     8 1   
    20     7    20 1   
    21     8    21 1   
    22     9    22 1   
    23    10    23 1   
@<TRIPOS>SUBSTRUCTURE
     1 TGY         1 TEMP              0 ****  ****    0 ROOT
