@<TRIPOS>MOLECULE
TGZ
   60    63     1     0     0
SMALL
No Charge or Current Charge


@<TRIPOS>ATOM
      1 S1          -1.9460    -1.5660    -0.2290 ss         1 TGZ      -0.365000
      2 C2           0.4810    -0.1900     0.3240 c6         1 TGZ       0.151300
      3 C3           1.1970     1.1970     0.3930 c6         1 TGZ       0.069300
      4 C5          -0.6020     2.1200    -1.1320 c6         1 TGZ       0.151300
      5 C6          -0.9840     2.9160    -2.4230 c3         1 TGZ       0.172600
      6 C14          7.3910    -1.9020    -0.4930 ca         1 TGZ       0.168000
      7 C1          -1.0330     0.0240    -0.0070 c6         1 TGZ       0.259300
      8 C19         -3.6460    -0.8670    -0.4030 c6         1 TGZ       0.269300
      9 O5          -1.1790     0.7930    -1.2160 os         1 TGZ      -0.407000
     10 O1          -3.9890    -0.2140     0.8350 os         1 TGZ      -0.414000
     11 C9          -5.2550     0.4930     0.7860 c6         1 TGZ       0.163300
     12 C18         -5.4360     1.2960     2.1150 c3         1 TGZ       0.172600
     13 O6          -2.4090     3.0410    -2.6090 oh         1 TGZ      -0.710000
     14 O7          -4.3770     2.2480     2.3530 oh         1 TGZ      -0.717000
     15 C4           0.9440     2.0240    -0.9090 c6         1 TGZ       0.129300
     16 C20         -6.4330    -0.5020     0.5130 c6         1 TGZ       0.148300
     17 O4           1.6010     1.4120    -2.0440 oh         1 TGZ      -0.707000
     18 O8          -6.6350    -1.4370     1.5920 oh         1 TGZ      -0.711000
     19 C8          -6.1270    -1.2940    -0.7960 c6         1 TGZ       0.142300
     20 O3          -7.1300    -2.3020    -1.0230 oh         1 TGZ      -0.667000
     21 C7          -4.7150    -1.9550    -0.7390 c6         1 TGZ       0.119300
     22 O2           0.6440    -0.9160     1.5630 oh         1 TGZ      -0.703000
     23 O9          -4.4350    -2.6330    -1.9890 oh         1 TGZ      -0.724000
     24 N7           2.6460     1.0910     0.6960 na         1 TGZ       0.135800
     25 N8           3.2830     1.9500     1.5440 nc         1 TGZ      -0.197800
     26 N9           4.5370     1.5900     1.5800 nd         1 TGZ      -0.351000
     27 C10          4.7210     0.5000     0.7540 cd         1 TGZ       0.243500
     28 C11          3.5270     0.1690     0.1770 cc         1 TGZ      -0.179000
     29 C12          6.0280    -0.1650     0.5560 ca         1 TGZ      -0.073500
     30 C13          6.1490    -1.2760    -0.3090 ca         1 TGZ      -0.152000
     31 C15          8.5300    -1.4360     0.1770 ca         1 TGZ      -0.150000
     32 C16          8.4260    -0.3330     1.0400 ca         1 TGZ      -0.088000
     33 C17          7.1830     0.2980     1.2280 ca         1 TGZ      -0.100000
     34 H1           0.9170    -0.7670    -0.5060 h1         1 TGZ       0.068700
     35 H2           0.7420     1.7520     1.2260 h1         1 TGZ       0.108700
     36 H3          -1.0540     2.6460    -0.2770 h1         1 TGZ       0.059700
     37 H4          -0.5260     3.9120    -2.3580 h1         1 TGZ       0.034700
     38 H5          -0.5380     2.4090    -3.2890 h1         1 TGZ       0.034700
     39 H6          -1.5160     0.5540     0.8290 h2         1 TGZ       0.074700
     40 H7          -3.6060    -0.1270    -1.2170 h2         1 TGZ       0.070700
     41 H8          -5.2130     1.2220    -0.0360 h1         1 TGZ       0.051700
     42 H9          -6.4030     1.8150     2.0690 h1         1 TGZ       0.039700
     43 H10         -5.4900     0.5810     2.9470 h1         1 TGZ       0.039700
     44 H11         -2.5470     3.4870    -3.4780 ho         1 TGZ       0.509000
     45 H12         -4.5430     2.6460     3.2400 ho         1 TGZ       0.509000
     46 H13          1.3300     3.0440    -0.7550 h1         1 TGZ       0.060700
     47 H14         -7.3500     0.0850     0.3530 h1         1 TGZ       0.051700
     48 H15          2.4980     1.8140    -2.1210 ho         1 TGZ       0.514000
     49 H16         -7.1250    -2.1860     1.1740 ho         1 TGZ       0.523000
     50 H17         -6.1310    -0.5770    -1.6310 h1         1 TGZ       0.050700
     51 H18         -6.7460    -2.8840    -1.7210 ho         1 TGZ       0.471000
     52 H19         -4.7070    -2.6840     0.0860 h1         1 TGZ       0.072700
     53 H20          0.1390    -1.7590     1.4710 ho         1 TGZ       0.534000
     54 H21         -3.5070    -2.9650    -1.9320 ho         1 TGZ       0.531000
     55 H22          3.2490    -0.6050    -0.5230 h4         1 TGZ       0.177000
     56 H23          5.2850    -1.6610    -0.8440 ha         1 TGZ       0.126000
     57 H24          9.4880    -1.9280     0.0280 ha         1 TGZ       0.131000
     58 H25          9.3070     0.0340     1.5640 ha         1 TGZ       0.118000
     59 H26          7.1240     1.1510     1.9010 ha         1 TGZ       0.139000
     60 F18          7.4900    -2.9630    -1.3240 f          1 TGZ      -0.182000
@<TRIPOS>BOND
     1     1     7 1   
     2     1     8 1   
     3     2     3 1   
     4     2     7 1   
     5     2    22 1   
     6     2    34 1   
     7     3    15 1   
     8     3    24 1   
     9     3    35 1   
    10     4     5 1   
    11     4     9 1   
    12     4    15 1   
    13     4    36 1   
    14     5    13 1   
    15     5    37 1   
    16     5    38 1   
    17     6    30 ar  
    18     6    31 ar  
    19     6    60 1   
    20     7     9 1   
    21     7    39 1   
    22     8    10 1   
    23     8    21 1   
    24     8    40 1   
    25    10    11 1   
    26    11    12 1   
    27    11    16 1   
    28    11    41 1   
    29    12    14 1   
    30    12    42 1   
    31    12    43 1   
    32    13    44 1   
    33    14    45 1   
    34    15    17 1   
    35    15    46 1   
    36    16    18 1   
    37    16    19 1   
    38    16    47 1   
    39    17    48 1   
    40    18    49 1   
    41    19    20 1   
    42    19    21 1   
    43    19    50 1   
    44    20    51 1   
    45    21    23 1   
    46    21    52 1   
    47    22    53 1   
    48    23    54 1   
    49    24    25 1   
    50    24    28 1   
    51    25    26 2   
    52    26    27 1   
    53    27    28 2   
    54    27    29 1   
    55    28    55 1   
    56    29    30 ar  
    57    29    33 ar  
    58    30    56 1   
    59    31    32 ar  
    60    31    57 1   
    61    32    33 ar  
    62    32    58 1   
    63    33    59 1   
@<TRIPOS>SUBSTRUCTURE
     1 TGZ         1 TEMP              0 ****  ****    0 ROOT
