@<TRIPOS>MOLECULE
TGZ
   60    63     1     0     0
SMALL
abcg2


@<TRIPOS>ATOM
      1 S1          -2.1000    -1.0910    -0.6710 ss         1 TGZ      -0.365000
      2 C2           0.2610     0.1350    -0.1040 c6         1 TGZ       0.151300
      3 C3           1.0970     1.4040    -0.2270 c6         1 TGZ       0.069300
      4 C5          -0.3300     2.1100    -2.1200 c6         1 TGZ       0.151300
      5 C6          -0.4170     2.5810    -3.5550 c3         1 TGZ       0.172600
      6 C14          7.2240    -1.8500     0.1650 ca         1 TGZ       0.168000
      7 C1          -1.1260     0.4340    -0.6900 c6         1 TGZ       0.259300
      8 C19         -3.7300    -0.4690    -0.1880 c6         1 TGZ       0.269300
      9 O5          -1.0420     0.8890    -2.0060 os         1 TGZ      -0.407000
     10 O1          -3.8200    -0.5080     1.2050 os         1 TGZ      -0.414000
     11 C9          -5.0590    -0.0160     1.6870 c6         1 TGZ       0.163300
     12 C18         -5.0010     0.0150     3.1990 c3         1 TGZ       0.172600
     13 O6          -1.7540     2.9150    -3.8410 oh         1 TGZ      -0.710000
     14 O7          -4.0560     0.9780     3.5970 oh         1 TGZ      -0.717000
     15 C4           1.1160     1.9250    -1.6680 c6         1 TGZ       0.129300
     16 C20         -6.2180    -0.8560     1.1690 c6         1 TGZ       0.148300
     17 O4           1.7830     1.0160    -2.5080 oh         1 TGZ      -0.707000
     18 O8          -6.1200    -2.1500     1.7120 oh         1 TGZ      -0.711000
     19 C8          -6.1740    -0.8750    -0.3560 c6         1 TGZ       0.142300
     20 O3          -7.2090    -1.7130    -0.8040 oh         1 TGZ      -0.667000
     21 C7          -4.8060    -1.3380    -0.8480 c6         1 TGZ       0.119300
     22 O2           0.1930    -0.1980     1.2510 oh         1 TGZ      -0.703000
     23 O9          -4.7980    -1.1980    -2.2440 oh         1 TGZ      -0.724000
     24 N7           2.4390     1.2030     0.2810 na         1 TGZ       0.135800
     25 N8           2.9450     2.0610     1.1540 nc         1 TGZ      -0.197800
     26 N9           4.1440     1.6920     1.4230 nd         1 TGZ      -0.351000
     27 C10          4.4400     0.5730     0.7220 cd         1 TGZ       0.243500
     28 C11          3.3320     0.2510    -0.0270 cc         1 TGZ      -0.179000
     29 C12          5.7350    -0.0940     0.8120 ca         1 TGZ      -0.073500
     30 C13          5.9910    -1.2410     0.0610 ca         1 TGZ      -0.152000
     31 C15          8.2260    -1.3710     0.9860 ca         1 TGZ      -0.150000
     32 C16          7.9630    -0.2290     1.7310 ca         1 TGZ      -0.088000
     33 C17          6.7340     0.4070     1.6490 ca         1 TGZ      -0.100000
     34 H1           0.7170    -0.6680    -0.7010 h1         1 TGZ       0.068700
     35 H2           0.6590     2.1750     0.4140 h1         1 TGZ       0.108700
     36 H3          -0.7860     2.8730    -1.4690 h1         1 TGZ       0.059700
     37 H4           0.2520     3.4440    -3.6630 h1         1 TGZ       0.034700
     38 H5          -0.0400     1.7970    -4.2210 h1         1 TGZ       0.034700
     39 H6          -1.6340     1.1620    -0.0390 h2         1 TGZ       0.074700
     40 H7          -3.8220     0.5600    -0.5680 h2         1 TGZ       0.070700
     41 H8          -5.2200     1.0130     1.3260 h1         1 TGZ       0.051700
     42 H9          -6.0070     0.2570     3.5670 h1         1 TGZ       0.039700
     43 H10         -4.7510    -0.9820     3.5790 h1         1 TGZ       0.039700
     44 H11         -1.8030     3.1710    -4.7660 ho         1 TGZ       0.509000
     45 H12         -3.9710     0.9320     4.5530 ho         1 TGZ       0.509000
     46 H13          1.6030     2.9060    -1.6670 h1         1 TGZ       0.060700
     47 H14         -7.1520    -0.3640     1.4800 h1         1 TGZ       0.051700
     48 H15          2.6030     1.4110    -2.8150 ho         1 TGZ       0.514000
     49 H16         -6.8010    -2.6970     1.3070 ho         1 TGZ       0.523000
     50 H17         -6.3240     0.1600    -0.7040 h1         1 TGZ       0.050700
     51 H18         -7.1520    -1.7890    -1.7630 ho         1 TGZ       0.471000
     52 H19         -4.6540    -2.3820    -0.5420 h1         1 TGZ       0.072700
     53 H20         -0.3540    -0.9870     1.3420 ho         1 TGZ       0.534000
     54 H21         -3.9910    -1.5900    -2.5950 ho         1 TGZ       0.531000
     55 H22          3.1280    -0.5510    -0.7140 h4         1 TGZ       0.177000
     56 H23          5.2450    -1.6620    -0.6020 ha         1 TGZ       0.126000
     57 H24          9.1830    -1.8720     1.0420 ha         1 TGZ       0.131000
     58 H25          8.7280     0.1680     2.3830 ha         1 TGZ       0.118000
     59 H26          6.5500     1.2960     2.2360 ha         1 TGZ       0.139000
     60 F18          7.4560    -2.9540    -0.5640 f          1 TGZ      -0.182000
@<TRIPOS>BOND
     1     1     7 1   
     2     1     8 1   
     3     2     3 1   
     4     2     7 1   
     5     2    22 1   
     6     2    34 1   
     7     3    15 1   
     8     3    24 1   
     9     3    35 1   
    10     4     5 1   
    11     4     9 1   
    12     4    15 1   
    13     4    36 1   
    14     5    13 1   
    15     5    37 1   
    16     5    38 1   
    17     6    30 ar  
    18     6    31 ar  
    19     6    60 1   
    20     7     9 1   
    21     7    39 1   
    22     8    10 1   
    23     8    21 1   
    24     8    40 1   
    25    10    11 1   
    26    11    12 1   
    27    11    16 1   
    28    11    41 1   
    29    12    14 1   
    30    12    42 1   
    31    12    43 1   
    32    13    44 1   
    33    14    45 1   
    34    15    17 1   
    35    15    46 1   
    36    16    18 1   
    37    16    19 1   
    38    16    47 1   
    39    17    48 1   
    40    18    49 1   
    41    19    20 1   
    42    19    21 1   
    43    19    50 1   
    44    20    51 1   
    45    21    23 1   
    46    21    52 1   
    47    22    53 1   
    48    23    54 1   
    49    24    25 1   
    50    24    28 1   
    51    25    26 2   
    52    26    27 1   
    53    27    28 2   
    54    27    29 1   
    55    28    55 1   
    56    29    30 ar  
    57    29    33 ar  
    58    30    56 1   
    59    31    32 ar  
    60    31    57 1   
    61    32    33 ar  
    62    32    58 1   
    63    33    59 1   
@<TRIPOS>SUBSTRUCTURE
     1 TGZ         1 TEMP              0 ****  ****    0 ROOT
