@<TRIPOS>MOLECULE
TH0
   15    15     1     0     0
SMALL
No Charge or Current Charge


@<TRIPOS>ATOM
      1 C1           2.8950    -1.6820     0.6270 ca         1 TH0      -0.266000
      2 C2           2.8670    -1.6860     2.0260 ca         1 TH0       0.226100
      3 O1           3.8570    -2.3060     2.7150 oh         1 TH0      -0.529100
      4 S1           1.7900    -1.0580     4.5230 sh         1 TH0      -0.219800
      5 C3           1.8270    -1.0550     2.7320 ca         1 TH0      -0.256000
      6 C4           0.8030    -0.4140     2.0070 ca         1 TH0       0.011000
      7 C5           0.8300    -0.4100     0.6020 ca         1 TH0      -0.197000
      8 C6           1.8740    -1.0430    -0.0850 ca         1 TH0       0.203100
      9 O3           1.8910    -1.0330    -1.4450 oh         1 TH0      -0.526100
     10 H1           3.7100    -2.1770     0.1060 ha         1 TH0       0.132000
     11 HO1          3.6420    -2.1870     3.6630 ho         1 TH0       0.487000
     12 HS1          0.6410    -0.3520     4.6630 hs         1 TH0       0.201800
     13 H4          -0.0130     0.0820     2.5290 ha         1 TH0       0.127000
     14 H5           0.0390     0.0860     0.0460 ha         1 TH0       0.136000
     15 HO3          2.6880    -1.5200    -1.7430 ho         1 TH0       0.471000
@<TRIPOS>BOND
     1     1     2 ar  
     2     1     8 ar  
     3     1    10 1   
     4     2     3 1   
     5     2     5 ar  
     6     3    11 1   
     7     4     5 1   
     8     4    12 1   
     9     5     6 ar  
    10     6     7 ar  
    11     6    13 1   
    12     7     8 ar  
    13     7    14 1   
    14     8     9 1   
    15     9    15 1   
@<TRIPOS>SUBSTRUCTURE
     1 TH0         1 TEMP              0 ****  ****    0 ROOT
