@<TRIPOS>MOLECULE
TH0
   15    15     1     0     0
SMALL
abcg2


@<TRIPOS>ATOM
      1 C1           2.8960    -1.5800     0.7040 ca         1 TH0      -0.266000
      2 C2           2.7570    -1.6270     2.0890 ca         1 TH0       0.226100
      3 O1           3.7580    -2.1640     2.7960 oh         1 TH0      -0.529100
      4 S1           1.4050    -1.2460     4.4500 sh         1 TH0      -0.219800
      5 C3           1.6000    -1.1200     2.6930 ca         1 TH0      -0.256000
      6 C4           0.5970    -0.5880     1.8880 ca         1 TH0       0.011000
      7 C5           0.7240    -0.5350     0.5140 ca         1 TH0      -0.197000
      8 C6           1.8860    -1.0360    -0.0790 ca         1 TH0       0.203100
      9 O3           1.9770    -0.9710    -1.4170 oh         1 TH0      -0.526100
     10 H1           3.7970    -1.9760     0.2490 ha         1 TH0       0.132000
     11 HO1          3.5200    -2.1610     3.7370 ho         1 TH0       0.487000
     12 HS1          1.9770    -0.0870     4.8080 hs         1 TH0       0.201800
     13 H4          -0.3020    -0.2060     2.3530 ha         1 TH0       0.127000
     14 H5          -0.0640    -0.1160    -0.0980 ha         1 TH0       0.136000
     15 HO3          2.8120    -1.3430    -1.7210 ho         1 TH0       0.471000
@<TRIPOS>BOND
     1     1     2 ar  
     2     1     8 ar  
     3     1    10 1   
     4     2     3 1   
     5     2     5 ar  
     6     3    11 1   
     7     4     5 1   
     8     4    12 1   
     9     5     6 ar  
    10     6     7 ar  
    11     6    13 1   
    12     7     8 ar  
    13     7    14 1   
    14     8     9 1   
    15     9    15 1   
@<TRIPOS>SUBSTRUCTURE
     1 TH0         1 TEMP              0 ****  ****    0 ROOT
