@<TRIPOS>MOLECULE
TH1
   38    40     1     0     0
SMALL
No Charge or Current Charge


@<TRIPOS>ATOM
      1 C1           0.9630     0.0160     0.6420 c6         1 TH1       0.108000
      2 C2           1.4220    -1.3850     0.1140 c6         1 TH1       0.126300
      3 O2           0.7110    -2.4670     0.7530 oh         1 TH1      -0.729000
      4 C3           2.9520    -1.5540     0.3480 c6         1 TH1       0.138300
      5 O3           3.3970    -2.8190    -0.1720 oh         1 TH1      -0.666000
      6 C4           3.7400    -0.3800    -0.3000 c6         1 TH1       0.143300
      7 O4           5.1480    -0.5440    -0.0450 oh         1 TH1      -0.720000
      8 C5           3.1890     0.9710     0.2540 c6         1 TH1       0.174300
      9 O5           1.7590     1.0520     0.0030 os         1 TH1      -0.441000
     10 C6           3.8760     2.2120    -0.4060 c3         1 TH1       0.170600
     11 O6           3.3370     3.4730     0.0460 oh         1 TH1      -0.711000
     12 C7          -0.5280     0.2190     0.4070 cc         1 TH1       0.376200
     13 N1          -1.4550    -0.6620     0.8350 nd         1 TH1      -0.570100
     14 C8          -2.7040    -0.1820     0.4630 ca         1 TH1       0.101400
     15 C9          -3.9090    -0.8470     0.7440 ca         1 TH1      -0.060000
     16 C10         -5.1330    -0.2820     0.3260 ca         1 TH1      -0.073300
     17 C11         -5.1320     0.9450    -0.3750 ca         1 TH1      -0.102000
     18 C12         -3.9190     1.6040    -0.6520 ca         1 TH1      -0.067000
     19 C13         -2.7220     1.0140    -0.2190 ca         1 TH1      -0.210000
     20 S1          -1.1110     1.6660    -0.4590 ss         1 TH1       0.130800
     21 C14         -6.4450    -0.9930     0.6210 c3         1 TH1      -0.047800
     22 H1           1.1510     0.0640     1.7250 h1         1 TH1       0.073700
     23 H2           1.2330    -1.4090    -0.9710 h1         1 TH1       0.058700
     24 HO2         -0.2270    -2.1510     0.8580 ho         1 TH1       0.545000
     25 H3           3.1280    -1.5230     1.4350 h1         1 TH1       0.051700
     26 HO3          2.6620    -3.4420     0.0390 ho         1 TH1       0.467000
     27 H4           3.5560    -0.4020    -1.3850 h1         1 TH1       0.055700
     28 HO4          5.3070    -1.5160    -0.1350 ho         1 TH1       0.526000
     29 H5           3.3630     1.0200     1.3390 h1         1 TH1       0.063700
     30 H61          4.9510     2.1660    -0.1870 h1         1 TH1       0.038200
     31 H62          3.7620     2.1240    -1.4950 h1         1 TH1       0.038200
     32 HO6          3.7920     4.1810    -0.4670 ho         1 TH1       0.505000
     33 H9          -3.8920    -1.7920     1.2820 ha         1 TH1       0.129000
     34 H11         -6.0700     1.3870    -0.7040 ha         1 TH1       0.115000
     35 H12         -3.9140     2.5490    -1.1900 ha         1 TH1       0.125000
     36 H141        -7.2680    -0.2790     0.7470 hc         1 TH1       0.044700
     37 H142        -6.7130    -1.6720    -0.1960 hc         1 TH1       0.044700
     38 H143        -6.3810    -1.5850     1.5420 hc         1 TH1       0.044700
@<TRIPOS>BOND
     1     1     2 1   
     2     1     9 1   
     3     1    12 1   
     4     1    22 1   
     5     2     3 1   
     6     2     4 1   
     7     2    23 1   
     8     3    24 1   
     9     4     5 1   
    10     4     6 1   
    11     4    25 1   
    12     5    26 1   
    13     6     7 1   
    14     6     8 1   
    15     6    27 1   
    16     7    28 1   
    17     8     9 1   
    18     8    10 1   
    19     8    29 1   
    20    10    11 1   
    21    10    30 1   
    22    10    31 1   
    23    11    32 1   
    24    12    13 2   
    25    12    20 1   
    26    13    14 1   
    27    14    15 ar  
    28    14    19 ar  
    29    15    16 ar  
    30    15    33 1   
    31    16    17 ar  
    32    16    21 1   
    33    17    18 ar  
    34    17    34 1   
    35    18    19 ar  
    36    18    35 1   
    37    19    20 1   
    38    21    36 1   
    39    21    37 1   
    40    21    38 1   
@<TRIPOS>SUBSTRUCTURE
     1 TH1         1 TEMP              0 ****  ****    0 ROOT
