@<TRIPOS>MOLECULE
TH1
   38    40     1     0     0
SMALL
abcg2


@<TRIPOS>ATOM
      1 C1           0.9780    -0.0140     0.7150 c6         1 TH1       0.108000
      2 C2           1.3950    -1.4290     0.2850 c6         1 TH1       0.126300
      3 O2           0.7950    -2.4130     1.0830 oh         1 TH1      -0.729000
      4 C3           2.9050    -1.5460     0.4390 c6         1 TH1       0.138300
      5 O3           3.3980    -2.7560    -0.0820 oh         1 TH1      -0.666000
      6 C4           3.6130    -0.4130    -0.2980 c6         1 TH1       0.143300
      7 O4           4.9950    -0.4250    -0.0440 oh         1 TH1      -0.720000
      8 C5           3.0610     0.9370     0.1660 c6         1 TH1       0.174300
      9 O5           1.6590     0.9590    -0.0250 os         1 TH1      -0.441000
     10 C6           3.6500     2.0900    -0.6180 c3         1 TH1       0.170600
     11 O6           3.1490     3.2960    -0.0970 oh         1 TH1      -0.711000
     12 C7          -0.4810     0.2180     0.4870 cc         1 TH1       0.376200
     13 N1          -1.3920    -0.6560     0.7330 nd         1 TH1      -0.570100
     14 C8          -2.6440    -0.1700     0.4310 ca         1 TH1       0.101400
     15 C9          -3.8420    -0.8680     0.5810 ca         1 TH1      -0.060000
     16 C10         -5.0360    -0.2610     0.2340 ca         1 TH1      -0.073300
     17 C11         -5.0170     1.0550    -0.2630 ca         1 TH1      -0.102000
     18 C12         -3.8430     1.7640    -0.4200 ca         1 TH1      -0.067000
     19 C13         -2.6510     1.1390    -0.0670 ca         1 TH1      -0.210000
     20 S1          -1.0270     1.7380    -0.1520 ss         1 TH1       0.130800
     21 C14         -6.3420    -0.9870     0.3710 c3         1 TH1      -0.047800
     22 H1           1.1800     0.0970     1.7940 h1         1 TH1       0.073700
     23 H2           1.1320    -1.5500    -0.7770 h1         1 TH1       0.058700
     24 HO2         -0.1640    -2.2880     1.0240 ho         1 TH1       0.545000
     25 H3           3.1460    -1.4540     1.5100 h1         1 TH1       0.051700
     26 HO3          3.1540    -3.4720     0.5130 ho         1 TH1       0.467000
     27 H4           3.4080    -0.5160    -1.3760 h1         1 TH1       0.055700
     28 HO4          5.3430    -1.2780    -0.3240 ho         1 TH1       0.526000
     29 H5           3.2930     1.0680     1.2340 h1         1 TH1       0.063700
     30 H61          4.7400     2.0340    -0.5390 h1         1 TH1       0.038200
     31 H62          3.3970     1.9650    -1.6810 h1         1 TH1       0.038200
     32 HO6          3.6230     4.0190    -0.5170 ho         1 TH1       0.505000
     33 H9          -3.8250    -1.8800     0.9680 ha         1 TH1       0.129000
     34 H11         -5.9540     1.5280    -0.5310 ha         1 TH1       0.115000
     35 H12         -3.8550     2.7740    -0.8060 ha         1 TH1       0.125000
     36 H141        -7.0440    -0.4280     0.9910 hc         1 TH1       0.044700
     37 H142        -6.8160    -1.1290    -0.6020 hc         1 TH1       0.044700
     38 H143        -6.2070    -1.9700     0.8210 hc         1 TH1       0.044700
@<TRIPOS>BOND
     1     1     2 1   
     2     1     9 1   
     3     1    12 1   
     4     1    22 1   
     5     2     3 1   
     6     2     4 1   
     7     2    23 1   
     8     3    24 1   
     9     4     5 1   
    10     4     6 1   
    11     4    25 1   
    12     5    26 1   
    13     6     7 1   
    14     6     8 1   
    15     6    27 1   
    16     7    28 1   
    17     8     9 1   
    18     8    10 1   
    19     8    29 1   
    20    10    11 1   
    21    10    30 1   
    22    10    31 1   
    23    11    32 1   
    24    12    13 2   
    25    12    20 1   
    26    13    14 1   
    27    14    15 ar  
    28    14    19 ar  
    29    15    16 ar  
    30    15    33 1   
    31    16    17 ar  
    32    16    21 1   
    33    17    18 ar  
    34    17    34 1   
    35    18    19 ar  
    36    18    35 1   
    37    19    20 1   
    38    21    36 1   
    39    21    37 1   
    40    21    38 1   
@<TRIPOS>SUBSTRUCTURE
     1 TH1         1 TEMP              0 ****  ****    0 ROOT
