@<TRIPOS>MOLECULE
TH2
   59    62     1     0     0
SMALL
bcc


@<TRIPOS>ATOM
      1 C1           4.2460     1.8920     0.5270 c6         1 TH2      -0.064400
      2 C2           5.7480     2.1240     0.5180 c6         1 TH2      -0.181400
      3 C3           6.4960     0.8870     0.9310 c          1 TH2       0.579300
      4 O3           7.5590     0.9300     1.5240 o          1 TH2      -0.539100
      5 C4           5.9020    -0.3810     0.5100 ce         1 TH2      -0.279200
      6 C5           4.7180    -0.4800    -0.1140 c2         1 TH2      -0.021400
      7 C6           4.2660    -1.7980    -0.6620 c6         1 TH2      -0.052200
      8 C7           2.8440    -2.1430    -0.2410 c6         1 TH2      -0.069400
      9 C8           1.8720    -1.0140    -0.5550 c6         1 TH2      -0.042700
     10 C9           2.3560     0.2950     0.0940 c6         1 TH2      -0.046700
     11 C10          3.7960     0.7040    -0.3370 c6         1 TH2      -0.011800
     12 C11          1.3400     1.4340    -0.0700 c6         1 TH2      -0.071400
     13 C12         -0.0680     1.0510     0.3920 c6         1 TH2      -0.061400
     14 C13         -0.5450    -0.2220    -0.2970 c5         1 TH2      -0.041000
     15 C14          0.4800    -1.3310    -0.0310 c5         1 TH2      -0.069700
     16 C15         -0.2260    -2.6040    -0.4980 c5         1 TH2      -0.069400
     17 C16         -1.7090    -2.3520    -0.1420 c5         1 TH2      -0.100400
     18 C17         -1.7700    -0.8870     0.3310 c5         1 TH2       0.154100
     19 O17         -2.9650    -0.2030    -0.0380 os         1 TH2      -0.427900
     20 C18         -0.7780     0.0240    -1.7910 c3         1 TH2      -0.072100
     21 C20         -4.0800    -0.4690     0.6390 c          1 TH2       0.630100
     22 O20         -4.1200    -1.2520     1.5560 o          1 TH2      -0.560000
     23 C21         -6.4550     0.2930     1.0310 c3         1 TH2      -0.207400
     24 C22         -5.2550     0.3030     0.1030 c3         1 TH2      -0.106400
     25 C23         -7.7020     1.0120     0.4870 c          1 TH2       0.930600
     26 O23         -7.6040     1.5930    -0.6130 o          1 TH2      -0.842300
     27 O24         -8.7150     0.9490     1.2080 o          1 TH2      -0.842300
     28 C19          3.8660     1.0840    -1.8260 c3         1 TH2      -0.080100
     29 H1C1         3.9240     1.7220     1.5590 hc         1 TH2       0.050700
     30 H1C2         3.7450     2.8040     0.1980 hc         1 TH2       0.050700
     31 H2C1         6.0190     2.9560     1.1700 hc         1 TH2       0.066200
     32 H2C2         6.0920     2.3930    -0.4870 hc         1 TH2       0.066200
     33 H4           6.5040    -1.2700     0.6670 ha         1 TH2       0.141000
     34 H6C1         4.9580    -2.5870    -0.3640 hc         1 TH2       0.050200
     35 H6C2         4.3110    -1.7510    -1.7560 hc         1 TH2       0.050200
     36 H7C1         2.8220    -2.3480     0.8350 hc         1 TH2       0.045200
     37 H7C2         2.5340    -3.0650    -0.7390 hc         1 TH2       0.045200
     38 H8           1.8230    -0.8890    -1.6440 hc         1 TH2       0.053700
     39 H9           2.4200     0.0860     1.1730 hc         1 TH2       0.046700
     40 H111         1.3030     1.7580    -1.1130 hc         1 TH2       0.038700
     41 H112         1.6630     2.3070     0.4990 hc         1 TH2       0.038700
     42 H121        -0.7550     1.8810     0.2080 hc         1 TH2       0.049700
     43 H122        -0.0590     0.8910     1.4760 hc         1 TH2       0.049700
     44 H14          0.5770    -1.4070     1.0630 hc         1 TH2       0.045700
     45 H151        -0.0950    -2.7470    -1.5740 hc         1 TH2       0.037700
     46 H152         0.1650    -3.4980    -0.0130 hc         1 TH2       0.037700
     47 H161        -2.3610    -2.5010    -1.0050 hc         1 TH2       0.059200
     48 H162        -2.0630    -3.0260     0.6360 hc         1 TH2       0.059200
     49 H17         -1.6670    -0.8480     1.4210 h1         1 TH2       0.055700
     50 H181         0.1300     0.3420    -2.3010 hc         1 TH2       0.036033
     51 H182        -1.1350    -0.8640    -2.3140 hc         1 TH2       0.036033
     52 H183        -1.5200     0.8080    -1.9420 hc         1 TH2       0.036033
     53 H211        -6.7340    -0.7350     1.2780 hc         1 TH2       0.032700
     54 H212        -6.1870     0.7530     1.9880 hc         1 TH2       0.032700
     55 H221        -4.9400     1.3220    -0.1270 hc         1 TH2       0.072200
     56 H222        -5.5170    -0.1390    -0.8650 hc         1 TH2       0.072200
     57 H191         4.8850     1.3440    -2.1150 hc         1 TH2       0.037033
     58 H192         3.5430     0.2750    -2.4800 hc         1 TH2       0.037033
     59 H193         3.2350     1.9470    -2.0410 hc         1 TH2       0.037033
@<TRIPOS>BOND
     1     1     2 1   
     2     1    11 1   
     3     1    29 1   
     4     1    30 1   
     5     2     3 1   
     6     2    31 1   
     7     2    32 1   
     8     3     4 2   
     9     3     5 1   
    10     5     6 2   
    11     5    33 1   
    12     6     7 1   
    13     6    11 1   
    14     7     8 1   
    15     7    34 1   
    16     7    35 1   
    17     8     9 1   
    18     8    36 1   
    19     8    37 1   
    20     9    10 1   
    21     9    15 1   
    22     9    38 1   
    23    10    11 1   
    24    10    12 1   
    25    10    39 1   
    26    11    28 1   
    27    12    13 1   
    28    12    40 1   
    29    12    41 1   
    30    13    14 1   
    31    13    42 1   
    32    13    43 1   
    33    14    15 1   
    34    14    18 1   
    35    14    20 1   
    36    15    16 1   
    37    15    44 1   
    38    16    17 1   
    39    16    45 1   
    40    16    46 1   
    41    17    18 1   
    42    17    47 1   
    43    17    48 1   
    44    18    19 1   
    45    18    49 1   
    46    19    21 1   
    47    20    50 1   
    48    20    51 1   
    49    20    52 1   
    50    21    22 2   
    51    21    24 1   
    52    23    24 1   
    53    23    25 1   
    54    23    53 1   
    55    23    54 1   
    56    24    55 1   
    57    24    56 1   
    58    25    26 1   
    59    25    27 1   
    60    28    57 1   
    61    28    58 1   
    62    28    59 1   
@<TRIPOS>SUBSTRUCTURE
     1 TH2         1 TEMP              0 ****  ****    0 ROOT
