@<TRIPOS>MOLECULE
TH2
   59    62     1     0     0
SMALL
No Charge or Current Charge


@<TRIPOS>ATOM
      1 C1           4.1690     1.9590     0.6680 c6         1 TH2      -0.064400
      2 C2           5.6860     2.2570     0.6220 c6         1 TH2      -0.181400
      3 C3           6.5010     1.0070     0.9420 c          1 TH2       0.579300
      4 O3           7.5300     1.0520     1.6020 o          1 TH2      -0.539100
      5 C4           5.9750    -0.2620     0.3840 ce         1 TH2      -0.329200
      6 C5           4.7350    -0.3980    -0.1450 c2         1 TH2      -0.021400
      7 C6           4.2890    -1.7390    -0.7230 c6         1 TH2      -0.052200
      8 C7           2.8880    -2.1500    -0.2380 c6         1 TH2      -0.069400
      9 C8           1.8480    -1.0430    -0.5370 c6         1 TH2      -0.042700
     10 C9           2.2780     0.3030     0.1520 c6         1 TH2      -0.046700
     11 C10          3.7320     0.7750    -0.2700 c6         1 TH2      -0.011800
     12 C11          1.1770     1.4130    -0.0210 c6         1 TH2      -0.071400
     13 C12         -0.2350     0.9360     0.4280 c6         1 TH2      -0.061400
     14 C13         -0.6560    -0.3720    -0.3000 c5         1 TH2      -0.041000
     15 C14          0.4320    -1.4540    -0.0380 c5         1 TH2      -0.069700
     16 C15         -0.2260    -2.7320    -0.6330 c5         1 TH2      -0.069400
     17 C16         -1.7340    -2.5770    -0.2290 c5         1 TH2      -0.100400
     18 C17         -1.8370    -1.1350     0.3840 c5         1 TH2       0.177300
     19 O17         -3.0890    -0.5190    -0.0180 os         1 TH2      -0.451100
     20 C18         -0.9260    -0.0400    -1.8150 c3         1 TH2      -0.072100
     21 C20         -4.2080    -0.9870     0.6290 c          1 TH2       0.581100
     22 O20         -4.2070    -1.8050     1.5410 o          1 TH2      -0.511000
     23 C21         -5.8220     0.9670     0.9870 c3         1 TH2      -0.207400
     24 C22         -5.4760    -0.2850     0.1310 c3         1 TH2      -0.106400
     25 C23         -7.0990     1.6370     0.4570 c          1 TH2       0.720000
     26 O23         -6.9850     2.4820    -0.4180 o          1 TH2      -0.737000
     27 O24         -8.1730     1.2520     0.8920 o          1 TH2      -0.737000
     28 C19          3.7870     1.2480    -1.7640 c3         1 TH2      -0.080100
     29 H1C1         3.9010     1.7260     1.7080 hc         1 TH2       0.050700
     30 H1C2         3.6220     2.8770     0.4130 hc         1 TH2       0.050700
     31 H2C1         5.9840     3.0830     1.2800 hc         1 TH2       0.066200
     32 H2C2         5.9360     2.5410    -0.4070 hc         1 TH2       0.066200
     33 H4           6.6450    -1.1130     0.4710 ha         1 TH2       0.191000
     34 H6C1         5.0070    -2.5280    -0.4600 hc         1 TH2       0.050200
     35 H6C2         4.2960    -1.6810    -1.8200 hc         1 TH2       0.050200
     36 H7C1         2.9200    -2.3570     0.8410 hc         1 TH2       0.045200
     37 H7C2         2.5990    -3.0890    -0.7290 hc         1 TH2       0.045200
     38 H8           1.8040    -0.9040    -1.6240 hc         1 TH2       0.053700
     39 H9           2.3250     0.0860     1.2300 hc         1 TH2       0.046700
     40 H111         1.1340     1.7550    -1.0610 hc         1 TH2       0.038700
     41 H112         1.4340     2.2980     0.5740 hc         1 TH2       0.038700
     42 H121        -0.9760     1.7270     0.2520 hc         1 TH2       0.049700
     43 H122        -0.2240     0.7670     1.5140 hc         1 TH2       0.049700
     44 H14          0.5630    -1.6000     1.0430 hc         1 TH2       0.045700
     45 H151        -0.1040    -2.7860    -1.7210 hc         1 TH2       0.037700
     46 H152         0.2130    -3.6480    -0.2210 hc         1 TH2       0.037700
     47 H161        -2.3880    -2.7050    -1.0990 hc         1 TH2       0.059200
     48 H162        -2.0310    -3.3350     0.5050 hc         1 TH2       0.059200
     49 H17         -1.7360    -1.1340     1.4800 h1         1 TH2       0.055700
     50 H181        -0.0220     0.2780    -2.3440 hc         1 TH2       0.036033
     51 H182        -1.3330    -0.8910    -2.3720 hc         1 TH2       0.036033
     52 H183        -1.6550     0.7730    -1.9130 hc         1 TH2       0.036033
     53 H211        -5.9810     0.5980     2.0080 hc         1 TH2       0.032700
     54 H212        -4.9660     1.6450     0.8900 hc         1 TH2       0.032700
     55 H221        -5.3130     0.0540    -0.8990 hc         1 TH2       0.072200
     56 H222        -6.3140    -0.9900     0.1730 hc         1 TH2       0.072200
     57 H191         4.8170     1.4300    -2.0900 hc         1 TH2       0.037033
     58 H192         3.3700     0.5050    -2.4510 hc         1 TH2       0.037033
     59 H193         3.2340     2.1820    -1.9170 hc         1 TH2       0.037033
@<TRIPOS>BOND
     1     1     2 1   
     2     1    11 1   
     3     1    29 1   
     4     1    30 1   
     5     2     3 1   
     6     2    31 1   
     7     2    32 1   
     8     3     4 2   
     9     3     5 1   
    10     5     6 2   
    11     5    33 1   
    12     6     7 1   
    13     6    11 1   
    14     7     8 1   
    15     7    34 1   
    16     7    35 1   
    17     8     9 1   
    18     8    36 1   
    19     8    37 1   
    20     9    10 1   
    21     9    15 1   
    22     9    38 1   
    23    10    11 1   
    24    10    12 1   
    25    10    39 1   
    26    11    28 1   
    27    12    13 1   
    28    12    40 1   
    29    12    41 1   
    30    13    14 1   
    31    13    42 1   
    32    13    43 1   
    33    14    15 1   
    34    14    18 1   
    35    14    20 1   
    36    15    16 1   
    37    15    44 1   
    38    16    17 1   
    39    16    45 1   
    40    16    46 1   
    41    17    18 1   
    42    17    47 1   
    43    17    48 1   
    44    18    19 1   
    45    18    49 1   
    46    19    21 1   
    47    20    50 1   
    48    20    51 1   
    49    20    52 1   
    50    21    22 2   
    51    21    24 1   
    52    23    24 1   
    53    23    25 1   
    54    23    53 1   
    55    23    54 1   
    56    24    55 1   
    57    24    56 1   
    58    25    26 1   
    59    25    27 1   
    60    28    57 1   
    61    28    58 1   
    62    28    59 1   
@<TRIPOS>SUBSTRUCTURE
     1 TH2         1 TEMP              0 ****  ****    0 ROOT
