@<TRIPOS>MOLECULE
TH4
   25    26     1     0     0
SMALL
No Charge or Current Charge


@<TRIPOS>ATOM
      1 C5          -1.7070     1.3980    -0.3930 ca         1 TH4      -0.061000
      2 C6          -2.9410     0.9210     0.0750 ca         1 TH4      -0.156000
      3 C1          -3.3020    -0.4090    -0.1900 ca         1 TH4       0.451000
      4 Cl7         -4.8390    -1.0420     0.3780 cl         1 TH4      -0.161000
      5 N2          -2.5200    -1.2670    -0.8800 nb         1 TH4      -0.656000
      6 C3          -1.3290    -0.8060    -1.3280 ca         1 TH4       0.382900
      7 C4          -0.8820     0.5120    -1.1110 ca         1 TH4      -0.184300
      8 C8           0.4680     0.9600    -1.6450 c3         1 TH4       0.284100
      9 N9           1.4870     1.0850    -0.5880 nh         1 TH4      -0.744600
     10 C13          1.7090     2.3650     0.1350 c5         1 TH4       0.214800
     11 C12          3.1750     2.2360     0.6050 c5         1 TH4       0.024600
     12 S11          3.2550     0.5160     1.2760 ss         1 TH4      -0.281200
     13 C10          2.0490    -0.0000     0.0610 c2         1 TH4       0.736100
     14 N14          1.7600    -1.2300    -0.2080 ne         1 TH4      -0.556700
     15 C15          2.3040    -2.2650     0.4040 cg         1 TH4       0.410000
     16 N16          2.7050    -3.2550     0.8670 n1         1 TH4      -0.487000
     17 H5          -1.4000     2.4250    -0.2030 ha         1 TH4       0.118000
     18 H6          -3.6120     1.5670     0.6350 ha         1 TH4       0.141000
     19 H3          -0.7150    -1.5180    -1.8800 h4         1 TH4       0.049100
     20 H8           0.8150     0.2590    -2.4170 h1         1 TH4       0.078700
     21 H8A          0.3340     1.9290    -2.1450 h1         1 TH4       0.078700
     22 H13          1.5550     3.2450    -0.5040 h1         1 TH4       0.067200
     23 H13A         1.0330     2.4500     0.9970 h1         1 TH4       0.067200
     24 H12          3.8660     2.3320    -0.2420 h1         1 TH4       0.091700
     25 H12A         3.4430     2.9770     1.3680 h1         1 TH4       0.091700
@<TRIPOS>BOND
     1     1     2 ar  
     2     1     7 ar  
     3     1    17 1   
     4     2     3 ar  
     5     2    18 1   
     6     3     4 1   
     7     3     5 ar  
     8     5     6 ar  
     9     6     7 ar  
    10     6    19 1   
    11     7     8 1   
    12     8     9 1   
    13     8    20 1   
    14     8    21 1   
    15     9    10 1   
    16     9    13 1   
    17    10    11 1   
    18    10    22 1   
    19    10    23 1   
    20    11    12 1   
    21    11    24 1   
    22    11    25 1   
    23    12    13 1   
    24    13    14 2   
    25    14    15 1   
    26    15    16 3   
@<TRIPOS>SUBSTRUCTURE
     1 TH4         1 TEMP              0 ****  ****    0 ROOT
