@<TRIPOS>MOLECULE
TH4
   25    26     1     0     0
SMALL
abcg2


@<TRIPOS>ATOM
      1 C5          -1.7830     1.5390    -0.7830 ca         1 TH4      -0.061000
      2 C6          -3.0120     1.2520    -0.2150 ca         1 TH4      -0.156000
      3 C1          -3.2850    -0.0800     0.0530 ca         1 TH4       0.451000
      4 CL7         -4.8120    -0.4960     0.7630 cl         1 TH4      -0.161000
      5 N2          -2.4670    -1.0730    -0.1990 nb         1 TH4      -0.656000
      6 C3          -1.2900    -0.7830    -0.7420 ca         1 TH4       0.382900
      7 C4          -0.8880     0.5100    -1.0550 ca         1 TH4      -0.184300
      8 C8           0.4710     0.7780    -1.6430 c3         1 TH4       0.284100
      9 N9           1.4870     0.9290    -0.6150 nh         1 TH4      -0.744600
     10 C13          1.5120     2.1260     0.2100 c5         1 TH4       0.214800
     11 C12          2.8560     2.1270     0.9170 c5         1 TH4       0.024600
     12 S11          3.2400     0.3670     1.1770 ss         1 TH4      -0.281200
     13 C10          2.2100    -0.0910    -0.1640 c2         1 TH4       0.736100
     14 N14          2.1290    -1.2840    -0.6740 ne         1 TH4      -0.556700
     15 C15          2.9080    -2.2430    -0.2430 cg         1 TH4       0.410000
     16 N16          3.5540    -3.1530     0.0790 n1         1 TH4      -0.487000
     17 H5          -1.5280     2.5660    -1.0170 ha         1 TH4       0.118000
     18 H6          -3.7280     2.0300     0.0070 ha         1 TH4       0.141000
     19 H3          -0.6350    -1.6240    -0.9420 h4         1 TH4       0.049100
     20 H8           0.7700    -0.0270    -2.3110 h1         1 TH4       0.078700
     21 H8A          0.4570     1.6970    -2.2290 h1         1 TH4       0.078700
     22 H13          1.4030     3.0090    -0.4190 h1         1 TH4       0.067200
     23 H13A         0.6890     2.1050     0.9290 h1         1 TH4       0.067200
     24 H12          3.6400     2.5710     0.3070 h1         1 TH4       0.091700
     25 H12A         2.8110     2.6330     1.8770 h1         1 TH4       0.091700
@<TRIPOS>BOND
     1     1     2 ar  
     2     1     7 ar  
     3     1    17 1   
     4     2     3 ar  
     5     2    18 1   
     6     3     4 1   
     7     3     5 ar  
     8     5     6 ar  
     9     6     7 ar  
    10     6    19 1   
    11     7     8 1   
    12     8     9 1   
    13     8    20 1   
    14     8    21 1   
    15     9    10 1   
    16     9    13 1   
    17    10    11 1   
    18    10    22 1   
    19    10    23 1   
    20    11    12 1   
    21    11    24 1   
    22    11    25 1   
    23    12    13 1   
    24    13    14 2   
    25    14    15 1   
    26    15    16 3   
@<TRIPOS>SUBSTRUCTURE
     1 TH4         1 TEMP              0 ****  ****    0 ROOT
