@<TRIPOS>MOLECULE
TH5
   21    20     1     0     0
SMALL
bcc


@<TRIPOS>ATOM
      1 CAA         17.9080    41.2160   -68.0560 c3         1 TH5      -0.160100
      2 CAH         17.0970    41.4610   -66.8160 c          1 TH5       0.642100
      3 OAD         17.5210    42.0050   -65.8250 o          1 TH5      -0.562000
      4 OG1         15.8680    40.9760   -66.9340 os         1 TH5      -0.441900
      5 CB          14.9500    41.0640   -65.8210 c3         1 TH5       0.129100
      6 CG2         15.1690    39.8770   -64.9020 c3         1 TH5      -0.098100
      7 CA          13.5470    41.1220   -66.4340 c3         1 TH5       0.018500
      8 C           12.5050    41.1900   -65.2900 c          1 TH5       0.939600
      9 OXT         12.4280    42.2910   -64.7070 o          1 TH5      -0.829300
     10 N           13.3410    42.2530   -67.3260 n8         1 TH5      -0.875800
     11 O           11.8580    40.1570   -65.0390 o          1 TH5      -0.829300
     12 HAA1        17.2980    41.2190   -68.9560 hc         1 TH5       0.055700
     13 HAA2        18.6960    41.9590   -68.1440 hc         1 TH5       0.055700
     14 HAA3        18.3820    40.2350   -67.9820 hc         1 TH5       0.055700
     15 HB          15.1320    41.9980   -65.2820 h1         1 TH5       0.069700
     16 HG21        14.9290    38.9380   -65.4030 hc         1 TH5       0.040367
     17 HG22        16.2010    39.8270   -64.5560 hc         1 TH5       0.040367
     18 HG23        14.5390    39.9560   -64.0180 hc         1 TH5       0.040367
     19 HA          13.3900    40.1990   -67.0040 h1         1 TH5       0.056700
     20 HN1         13.3680    43.1030   -66.7750 hn         1 TH5       0.325800
     21 HN2         14.0940    42.3160   -68.0000 hn         1 TH5       0.325800
@<TRIPOS>BOND
     1     1     2 1   
     2     1    12 1   
     3     1    13 1   
     4     1    14 1   
     5     2     3 2   
     6     2     4 1   
     7     4     5 1   
     8     5     6 1   
     9     5     7 1   
    10     5    15 1   
    11     6    16 1   
    12     6    17 1   
    13     6    18 1   
    14     7     8 1   
    15     7    10 1   
    16     7    19 1   
    17     8     9 1   
    18     8    11 1   
    19    10    20 1   
    20    10    21 1   
@<TRIPOS>SUBSTRUCTURE
     1 TH5         1 TEMP              0 ****  ****    0 ROOT
