@<TRIPOS>MOLECULE
TH5
   21    20     1     0     0
SMALL
No Charge or Current Charge


@<TRIPOS>ATOM
      1 CAA         17.9530    41.2660   -68.0580 c3         1 TH5      -0.160100
      2 CAH         17.1540    41.4330   -66.7710 c          1 TH5       0.593100
      3 OAD         17.6170    41.9130   -65.7450 o          1 TH5      -0.513000
      4 OG1         15.8460    41.0540   -66.9400 os         1 TH5      -0.465100
      5 CB          14.9370    41.1160   -65.8150 c3         1 TH5       0.152300
      6 CG2         15.2340    39.9110   -64.8870 c3         1 TH5      -0.098100
      7 CA          13.4840    41.1100   -66.3830 c3         1 TH5       0.018500
      8 C           12.4360    41.1810   -65.2040 c          1 TH5       0.729000
      9 OXT         12.4270    42.1770   -64.4900 o          1 TH5      -0.724000
     10 N           13.3190    42.1420   -67.4850 n8         1 TH5      -0.986200
     11 O           11.6280    40.2680   -65.0880 o          1 TH5      -0.724000
     12 HAA1        17.4300    41.7820   -68.8700 hc         1 TH5       0.055700
     13 HAA2        18.9890    41.6090   -67.9600 hc         1 TH5       0.055700
     14 HAA3        17.8970    40.2190   -68.3760 hc         1 TH5       0.055700
     15 HB          15.0810    42.0490   -65.2510 h1         1 TH5       0.069700
     16 HG21        15.0880    38.9650   -65.4210 hc         1 TH5       0.040367
     17 HG22        16.2640    39.9400   -64.5140 hc         1 TH5       0.040367
     18 HG23        14.5700    39.9180   -64.0150 hc         1 TH5       0.040367
     19 HA          13.3400    40.1290   -66.8560 h1         1 TH5       0.056700
     20 HN1         13.3650    43.0800   -67.0680 hn         1 TH5       0.381000
     21 HN2         14.1610    42.1000   -68.0740 hn         1 TH5       0.381000
@<TRIPOS>BOND
     1     1     2 1   
     2     1    12 1   
     3     1    13 1   
     4     1    14 1   
     5     2     3 2   
     6     2     4 1   
     7     4     5 1   
     8     5     6 1   
     9     5     7 1   
    10     5    15 1   
    11     6    16 1   
    12     6    17 1   
    13     6    18 1   
    14     7     8 1   
    15     7    10 1   
    16     7    19 1   
    17     8     9 1   
    18     8    11 1   
    19    10    20 1   
    20    10    21 1   
@<TRIPOS>SUBSTRUCTURE
     1 TH5         1 TEMP              0 ****  ****    0 ROOT
