@<TRIPOS>MOLECULE
TH6
   17    16     1     0     0
SMALL
abcg2


@<TRIPOS>ATOM
      1 N           36.1270    27.5260    49.4550 n8         1 TH6      -0.984200
      2 CA          37.3790    27.2530    48.7620 c3         1 TH6       0.027500
      3 CB          38.5990    27.8550    49.4750 c3         1 TH6       0.099300
      4 OB1         38.3680    29.2530    49.5960 oh         1 TH6      -0.689000
      5 CG          39.9310    27.6240    48.7690 c3         1 TH6       0.142600
      6 OG1         39.9810    28.1960    47.4830 oh         1 TH6      -0.644000
      7 C           37.5620    25.7210    48.6290 c          1 TH6       0.722000
      8 O           37.9360    25.2800    47.5260 o          1 TH6      -0.726500
      9 OXT         37.3370    25.0610    49.6640 o          1 TH6      -0.726500
     10 HN1         36.1130    26.9650    50.2990 hn         1 TH6       0.380000
     11 HN2         36.1060    28.4930    49.7520 hn         1 TH6       0.380000
     12 HA          37.3200    27.6890    47.7600 h1         1 TH6       0.064700
     13 HB          38.6670    27.3880    50.4690 h1         1 TH6       0.037700
     14 HB1         38.9590    29.6040    50.2690 ho         1 TH6       0.414000
     15 HG1C        40.7330    28.0170    49.4110 h1         1 TH6       0.036200
     16 HG2C        40.1210    26.5550    48.6580 h1         1 TH6       0.036200
     17 HG1         39.7130    29.1160    47.5740 ho         1 TH6       0.428000
@<TRIPOS>BOND
     1     1     2 1   
     2     1    10 1   
     3     1    11 1   
     4     2     3 1   
     5     2     7 1   
     6     2    12 1   
     7     3     4 1   
     8     3     5 1   
     9     3    13 1   
    10     4    14 1   
    11     5     6 1   
    12     5    15 1   
    13     5    16 1   
    14     6    17 1   
    15     7     8 1   
    16     7     9 1   
@<TRIPOS>SUBSTRUCTURE
     1 TH6         1 TEMP              0 ****  ****    0 ROOT
