@<TRIPOS>MOLECULE
TH6
   17    16     1     0     0
SMALL
No Charge or Current Charge


@<TRIPOS>ATOM
      1 N           36.0880    27.6220    49.3850 n8         1 TH6      -0.984200
      2 CA          37.3930    27.1830    48.7520 c3         1 TH6       0.027500
      3 CB          38.6010    27.8490    49.4880 c3         1 TH6       0.099300
      4 OB1         38.3690    29.2710    49.6260 oh         1 TH6      -0.689000
      5 CG          39.9720    27.6150    48.7880 c3         1 TH6       0.142600
      6 OG1         40.0060    28.3220    47.5410 oh         1 TH6      -0.644000
      7 C           37.6100    25.6230    48.6040 c          1 TH6       0.722000
      8 O           37.5360    25.1280    47.4860 o          1 TH6      -0.726500
      9 OXT         37.7840    24.9570    49.6180 o          1 TH6      -0.726500
     10 HN1         36.0150    27.1870    50.3120 hn         1 TH6       0.380000
     11 HN2         36.1960    28.6210    49.6040 hn         1 TH6       0.380000
     12 HA          37.3900    27.5800    47.7270 h1         1 TH6       0.064700
     13 HB          38.6660    27.3980    50.4880 h1         1 TH6       0.037700
     14 HB1         38.9470    29.5920    50.3540 ho         1 TH6       0.414000
     15 HG1C        40.7720    27.9760    49.4480 h1         1 TH6       0.036200
     16 HG2C        40.1390    26.5420    48.6300 h1         1 TH6       0.036200
     17 HG1         39.4690    29.1310    47.7010 ho         1 TH6       0.428000
@<TRIPOS>BOND
     1     1     2 1   
     2     1    10 1   
     3     1    11 1   
     4     2     3 1   
     5     2     7 1   
     6     2    12 1   
     7     3     4 1   
     8     3     5 1   
     9     3    13 1   
    10     4    14 1   
    11     5     6 1   
    12     5    15 1   
    13     5    16 1   
    14     6    17 1   
    15     7     8 1   
    16     7     9 1   
@<TRIPOS>SUBSTRUCTURE
     1 TH6         1 TEMP              0 ****  ****    0 ROOT
