@<TRIPOS>MOLECULE
TH7
   16    16     1     0     0
SMALL
No Charge or Current Charge


@<TRIPOS>ATOM
      1 C1           1.6560    -0.9980    -0.0720 ca         1 TH7      -0.274000
      2 O1          -0.3030    -2.3220    -0.2730 oh         1 TH7      -0.528100
      3 S1          -2.3170    -0.0310    -0.3060 ss         1 TH7       0.152800
      4 C2           0.2630    -1.0930    -0.1720 ca         1 TH7       0.236100
      5 C3          -0.5340     0.0670    -0.1660 ca         1 TH7      -0.338000
      6 O3           3.6180     0.3550     0.1260 oh         1 TH7      -0.524100
      7 C4           0.0860     1.3290    -0.0700 ca         1 TH7       0.033000
      8 O4          -2.7610     1.1310     0.8380 oh         1 TH7      -0.563800
      9 C5           1.4840     1.4190     0.0290 ca         1 TH7      -0.203000
     10 C6           2.2650     0.2580     0.0300 ca         1 TH7       0.213100
     11 H1           2.2550    -1.9040    -0.0760 ha         1 TH7       0.131000
     12 HO3          3.9890    -0.5520     0.1090 ho         1 TH7       0.472000
     13 H4          -0.5090     2.2410    -0.0780 ha         1 TH7       0.130000
     14 H5           1.9600     2.3930     0.1040 ha         1 TH7       0.136000
     15 H51         -1.2710    -2.1950    -0.3360 ho         1 TH7       0.481000
     16 H6          -2.8440     0.6620     1.6960 ho         1 TH7       0.447000
@<TRIPOS>BOND
     1     1     4 ar  
     2     1    10 ar  
     3     1    11 1   
     4     2     4 1   
     5     2    15 1   
     6     3     5 1   
     7     3     8 1   
     8     4     5 ar  
     9     5     7 ar  
    10     6    10 1   
    11     6    12 1   
    12     7     9 ar  
    13     7    13 1   
    14     8    16 1   
    15     9    10 ar  
    16     9    14 1   
@<TRIPOS>SUBSTRUCTURE
     1 TH7         1 TEMP              0 ****  ****    0 ROOT
