@<TRIPOS>MOLECULE
TH7
   16    16     1     0     0
SMALL
abcg2


@<TRIPOS>ATOM
      1 C1           1.5590    -0.9460     0.0310 ca         1 TH7      -0.274000
      2 O1          -0.4560    -2.1110    -0.0620 oh         1 TH7      -0.528100
      3 S1          -2.2510     0.3090    -0.3890 ss         1 TH7       0.152800
      4 C2           0.1730    -0.9340    -0.0870 ca         1 TH7       0.236100
      5 C3          -0.5090     0.2870    -0.2310 ca         1 TH7      -0.338000
      6 O3           3.6030     0.2840     0.1190 oh         1 TH7      -0.524100
      7 C4           0.2330     1.4720    -0.2630 ca         1 TH7       0.033000
      8 O4          -2.7900     0.5970     1.1650 oh         1 TH7      -0.563800
      9 C5           1.6040     1.4710    -0.1420 ca         1 TH7      -0.203000
     10 C6           2.2690     0.2480     0.0080 ca         1 TH7       0.213100
     11 H1           2.0750    -1.8930     0.1410 ha         1 TH7       0.131000
     12 HO3          3.9620    -0.6040     0.2300 ho         1 TH7       0.472000
     13 H4          -0.2910     2.4110    -0.3870 ha         1 TH7       0.130000
     14 H5           2.1650     2.3960    -0.1650 ha         1 TH7       0.136000
     15 H51         -1.4060    -1.9760    -0.2050 ho         1 TH7       0.481000
     16 H6          -2.9020    -0.2490     1.6180 ho         1 TH7       0.447000
@<TRIPOS>BOND
     1     1     4 ar  
     2     1    10 ar  
     3     1    11 1   
     4     2     4 1   
     5     2    15 1   
     6     3     5 1   
     7     3     8 1   
     8     4     5 ar  
     9     5     7 ar  
    10     6    10 1   
    11     6    12 1   
    12     7     9 ar  
    13     7    13 1   
    14     8    16 1   
    15     9    10 ar  
    16     9    14 1   
@<TRIPOS>SUBSTRUCTURE
     1 TH7         1 TEMP              0 ****  ****    0 ROOT
