@<TRIPOS>MOLECULE
TH8
   36    36     1     0     0
SMALL
No Charge or Current Charge


@<TRIPOS>ATOM
      1 C1          -5.7460    37.9200    -0.8130 c3         1 TH8       0.211300
      2 Cl1         -7.3540    38.4400    -0.1290 cl         1 TH8      -0.199000
      3 Cl2         -5.2530    36.3480    -0.0260 cl         1 TH8      -0.199000
      4 C2          -5.7820    37.8310    -2.3580 c          1 TH8       0.608100
      5 O2          -6.2170    36.8560    -2.9600 o          1 TH8      -0.552100
      6 N2          -5.2930    38.9430    -3.0290 ns         1 TH8      -0.493900
      7 C3          -5.2390    39.0870    -4.5020 c3         1 TH8       0.031700
      8 C4          -3.8710    39.6560    -4.9720 c3         1 TH8       0.149600
      9 O4          -2.7810    38.8870    -4.4310 oh         1 TH8      -0.647000
     10 C5          -6.4470    39.8910    -5.0770 c3         1 TH8       0.201600
     11 O5          -6.3980    41.2580    -4.6360 oh         1 TH8      -0.643000
     12 C6          -7.7990    39.2520    -4.7310 ca         1 TH8      -0.067300
     13 C7          -8.3850    38.3450    -5.6370 ca         1 TH8      -0.117000
     14 C8          -9.6110    37.7230    -5.3420 ca         1 TH8      -0.008500
     15 C9         -10.2710    38.0030    -4.1290 ca         1 TH8      -0.263500
     16 O9A        -12.5690    38.0190    -2.7700 o          1 TH8      -0.523000
     17 O9B        -12.4590    36.7300    -4.9790 o          1 TH8      -0.523000
     18 C10         -9.6920    38.9070    -3.2150 ca         1 TH8      -0.008500
     19 C11         -8.4680    39.5270    -3.5160 ca         1 TH8      -0.117000
     20 C12        -11.3110    35.7220    -2.8490 c3         1 TH8      -0.334100
     21 S12        -11.8320    37.1900    -3.7330 sy         1 TH8       1.057500
     22 H1          -5.0100    38.6680    -0.5050 h2         1 TH8       0.096700
     23 H2          -4.9010    39.6860    -2.4600 hn         1 TH8       0.317500
     24 H3          -5.3150    38.0820    -4.9390 h1         1 TH8       0.090700
     25 H41C        -3.8370    39.6500    -6.0710 h1         1 TH8       0.056700
     26 H42C        -3.7840    40.7020    -4.6490 h1         1 TH8       0.056700
     27 H5          -6.3500    39.8730    -6.1730 h1         1 TH8       0.094700
     28 H4          -2.8930    37.9620    -4.7430 ho         1 TH8       0.448000
     29 HA          -6.5270    41.2460    -3.6650 ho         1 TH8       0.442000
     30 H7          -7.8870    38.1120    -6.5750 ha         1 TH8       0.120000
     31 H11         -8.0410    40.2120    -2.7890 ha         1 TH8       0.120000
     32 H8         -10.0380    37.0220    -6.0570 ha         1 TH8       0.140000
     33 H10        -10.1830    39.1290    -2.2680 ha         1 TH8       0.140000
     34 H121       -10.6750    35.1300    -3.5160 h1         1 TH8       0.103700
     35 H122       -10.7520    36.0370    -1.9620 h1         1 TH8       0.103700
     36 H123       -12.2060    35.1590    -2.5650 h1         1 TH8       0.103700
@<TRIPOS>BOND
     1     1     2 1   
     2     1     3 1   
     3     1     4 1   
     4     1    22 1   
     5     4     5 2   
     6     4     6 1   
     7     6     7 1   
     8     6    23 1   
     9     7     8 1   
    10     7    10 1   
    11     7    24 1   
    12     8     9 1   
    13     8    25 1   
    14     8    26 1   
    15     9    28 1   
    16    10    11 1   
    17    10    12 1   
    18    10    27 1   
    19    11    29 1   
    20    12    13 ar  
    21    12    19 ar  
    22    13    14 ar  
    23    13    30 1   
    24    14    15 ar  
    25    14    32 1   
    26    15    18 ar  
    27    15    21 1   
    28    16    21 2   
    29    17    21 2   
    30    18    19 ar  
    31    18    33 1   
    32    19    31 1   
    33    20    21 1   
    34    20    34 1   
    35    20    35 1   
    36    20    36 1   
@<TRIPOS>SUBSTRUCTURE
     1 TH8         1 TEMP              0 ****  ****    0 ROOT
