@<TRIPOS>MOLECULE
TH8
   36    36     1     0     0
SMALL
bcc


@<TRIPOS>ATOM
      1 C1          -5.9890    37.3350    -1.2890 c3         1 TH8       0.058100
      2 CL1         -7.7500    37.2290    -1.0620 cl         1 TH8      -0.122400
      3 CL2         -5.1970    35.8850    -0.6730 cl         1 TH8      -0.122400
      4 C2          -5.7360    37.4670    -2.7910 c          1 TH8       0.675100
      5 O2          -5.8350    36.5100    -3.5280 o          1 TH8      -0.552100
      6 N2          -5.4510    38.7200    -3.1650 ns         1 TH8      -0.560900
      7 C3          -5.2940    39.1250    -4.5450 c3         1 TH8       0.031700
      8 C4          -3.9410    39.8000    -4.7650 c3         1 TH8       0.126400
      9 O4          -2.8660    38.9540    -4.4490 oh         1 TH8      -0.584800
     10 C5          -6.4640    40.0200    -5.0040 c3         1 TH8       0.178400
     11 O5          -6.3770    41.3280    -4.5050 oh         1 TH8      -0.580800
     12 C6          -7.7850    39.3470    -4.6910 ca         1 TH8      -0.067300
     13 C7          -8.1030    38.1430    -5.3160 ca         1 TH8      -0.135000
     14 C8          -9.2780    37.4760    -5.0220 ca         1 TH8      -0.026500
     15 C9         -10.1490    38.0250    -4.0900 ca         1 TH8      -0.263500
     16 O9A        -12.6330    38.1550    -3.2400 o          1 TH8      -0.593800
     17 O9B        -11.9920    36.2910    -4.8020 o          1 TH8      -0.593800
     18 C10         -9.8640    39.2290    -3.4680 ca         1 TH8      -0.026500
     19 C11         -8.6810    39.8840    -3.7740 ca         1 TH8      -0.135000
     20 C12        -11.2030    36.1600    -2.2930 c3         1 TH8      -0.223300
     21 S12        -11.6480    37.1720    -3.6870 sy         1 TH8       1.088300
     22 H1          -5.6340    38.1840    -0.7090 h2         1 TH8       0.096700
     23 H2          -5.3090    39.4130    -2.4460 hn         1 TH8       0.317500
     24 H3          -5.3270    38.2190    -5.1520 h1         1 TH8       0.090700
     25 H41C        -3.8980    40.1560    -5.8020 h1         1 TH8       0.056700
     26 H42C        -3.8480    40.6760    -4.1220 h1         1 TH8       0.056700
     27 H5          -6.3790    40.1170    -6.0910 h1         1 TH8       0.094700
     28 H4          -2.8370    38.2380    -5.0910 ho         1 TH8       0.409000
     29 HA          -6.3580    41.3210    -3.5420 ho         1 TH8       0.403000
     30 H7          -7.4290    37.7130    -6.0470 ha         1 TH8       0.138000
     31 H11         -8.4820    40.8300    -3.2890 ha         1 TH8       0.138000
     32 H8          -9.5070    36.5420    -5.5170 ha         1 TH8       0.158000
     33 H10        -10.5470    39.6660    -2.7530 ha         1 TH8       0.158000
     34 H121       -10.4030    35.4800    -2.5760 h1         1 TH8       0.103700
     35 H122       -10.8900    36.7990    -1.4700 h1         1 TH8       0.103700
     36 H123       -12.0900    35.5960    -2.0060 h1         1 TH8       0.103700
@<TRIPOS>BOND
     1     1     2 1   
     2     1     3 1   
     3     1     4 1   
     4     1    22 1   
     5     4     5 2   
     6     4     6 1   
     7     6     7 1   
     8     6    23 1   
     9     7     8 1   
    10     7    10 1   
    11     7    24 1   
    12     8     9 1   
    13     8    25 1   
    14     8    26 1   
    15     9    28 1   
    16    10    11 1   
    17    10    12 1   
    18    10    27 1   
    19    11    29 1   
    20    12    13 ar  
    21    12    19 ar  
    22    13    14 ar  
    23    13    30 1   
    24    14    15 ar  
    25    14    32 1   
    26    15    18 ar  
    27    15    21 1   
    28    16    21 2   
    29    17    21 2   
    30    18    19 ar  
    31    18    33 1   
    32    19    31 1   
    33    20    21 1   
    34    20    34 1   
    35    20    35 1   
    36    20    36 1   
@<TRIPOS>SUBSTRUCTURE
     1 TH8         1 TEMP              0 ****  ****    0 ROOT
