@<TRIPOS>MOLECULE
TH9
   51    51     1     0     0
SMALL
abcg2


@<TRIPOS>ATOM
      1 CAA         10.7210     3.0560    -0.5510 c3         1 TH9      -0.088100
      2 OAB         -7.3060     2.1510     2.0210 o          1 TH9      -0.695500
      3 OAC         -5.2060    -0.5360    -1.8270 o          1 TH9      -0.642100
      4 OAD         -8.9110     2.1980     0.4560 o          1 TH9      -0.695500
      5 OAE         -7.6190     0.8470    -1.2140 oh         1 TH9      -0.532100
      6 CAF         -5.7330     0.6050     0.2040 ce         1 TH9      -0.442200
      7 CAG          2.3780    -2.9190     1.6920 ca         1 TH9      -0.076000
      8 CAH          1.1760    -2.9800     1.0090 ca         1 TH9      -0.145000
      9 CAI          3.4010    -2.0700     1.2810 ca         1 TH9      -0.208000
     10 CAJ          1.9910    -1.3300    -0.5300 ca         1 TH9      -0.143000
     11 CAK          9.7830     2.1640     0.2490 c3         1 TH9      -0.075400
     12 CAL          8.4700     1.8900    -0.4750 c3         1 TH9      -0.075400
     13 CAM          7.5380     0.9730     0.3050 c3         1 TH9      -0.074400
     14 CAN          6.2140     0.7250    -0.4100 c3         1 TH9      -0.081400
     15 CAO         -1.3880    -1.3260    -0.1250 c3         1 TH9      -0.093400
     16 CAP         -2.7190    -1.3360    -0.8590 c3         1 TH9       0.113000
     17 CAQ          5.3540    -0.2600     0.3540 c3         1 TH9       0.167600
     18 NAS         -3.6880    -0.5220    -0.1630 ns         1 TH9      -0.531900
     19 OAT          4.1240    -0.4170    -0.3360 os         1 TH9      -0.351100
     20 CAU         -7.7910     1.8830     0.9180 c          1 TH9       0.677200
     21 CAV         -4.8890    -0.1910    -0.6910 c          1 TH9       0.626300
     22 CAW         -6.9680     1.0530    -0.0790 cf         1 TH9       0.087900
     23 CAX          0.9740    -2.1760    -0.1150 ca         1 TH9      -0.034300
     24 CAY          3.2060    -1.2710     0.1580 ca         1 TH9       0.143100
     25 H1          11.6520     3.2460    -0.0140 hc         1 TH9       0.031033
     26 H2          10.9790     2.5970    -1.5070 hc         1 TH9       0.031033
     27 H3          10.2590     4.0220    -0.7650 hc         1 TH9       0.031033
     28 H5          -8.4730     1.3130    -1.0540 ho         1 TH9       0.492000
     29 H6          -5.3450     0.8610     1.1810 ha         1 TH9       0.192000
     30 H7           2.5330    -3.5430     2.5640 ha         1 TH9       0.105000
     31 H8           0.3930    -3.6490     1.3450 ha         1 TH9       0.116000
     32 H9           4.3270    -2.0510     1.8390 ha         1 TH9       0.110000
     33 H10          1.8500    -0.7000    -1.4010 ha         1 TH9       0.127000
     34 H11         10.2780     1.2130     0.4700 hc         1 TH9       0.035700
     35 H12          9.5710     2.6270     1.2170 hc         1 TH9       0.035700
     36 H13          7.9640     2.8400    -0.6800 hc         1 TH9       0.040200
     37 H14          8.6820     1.4440    -1.4530 hc         1 TH9       0.040200
     38 H15          8.0420     0.0180     0.4870 hc         1 TH9       0.037200
     39 H16          7.3430     1.4070     1.2910 hc         1 TH9       0.037200
     40 H17          5.6770     1.6710    -0.5270 hc         1 TH9       0.055200
     41 H18          6.4050     0.3380    -1.4150 hc         1 TH9       0.055200
     42 H19         -1.0180    -0.2990    -0.0470 hc         1 TH9       0.045700
     43 H20         -1.5260    -1.6910     0.8970 hc         1 TH9       0.045700
     44 H21         -2.5820    -0.9540    -1.8730 h1         1 TH9       0.036200
     45 H22         -3.0770    -2.3680    -0.9580 h1         1 TH9       0.036200
     46 H23          5.8750    -1.2210     0.4360 h1         1 TH9       0.031200
     47 H24          5.1710     0.1020     1.3730 h1         1 TH9       0.031200
     48 H25         -0.7170    -3.2160    -0.9080 hc         1 TH9       0.049200
     49 H26         -0.2120    -1.8300    -1.8580 hc         1 TH9       0.049200
     50 H27         -3.4990    -0.2810     0.7960 hn         1 TH9       0.306500
     51 CAR         -0.3460    -2.1900    -0.8350 c3         1 TH9      -0.034100
@<TRIPOS>BOND
     1     1    11 1   
     2     1    25 1   
     3     1    26 1   
     4     1    27 1   
     5     2    20 1   
     6     3    21 2   
     7     4    20 1   
     8     5    22 1   
     9     5    28 1   
    10     6    21 1   
    11     6    22 2   
    12     6    29 1   
    13     7     8 ar  
    14     7     9 ar  
    15     7    30 1   
    16     8    23 ar  
    17     8    31 1   
    18     9    24 ar  
    19     9    32 1   
    20    10    23 ar  
    21    10    24 ar  
    22    10    33 1   
    23    11    12 1   
    24    11    34 1   
    25    11    35 1   
    26    12    13 1   
    27    12    36 1   
    28    12    37 1   
    29    13    14 1   
    30    13    38 1   
    31    13    39 1   
    32    14    17 1   
    33    14    40 1   
    34    14    41 1   
    35    15    16 1   
    36    15    42 1   
    37    15    43 1   
    38    15    51 1   
    39    16    18 1   
    40    16    44 1   
    41    16    45 1   
    42    17    19 1   
    43    17    46 1   
    44    17    47 1   
    45    18    21 1   
    46    18    50 1   
    47    19    24 1   
    48    20    22 1   
    49    23    51 1   
    50    48    51 1   
    51    49    51 1   
@<TRIPOS>SUBSTRUCTURE
     1 TH9         1 TEMP              0 ****  ****    0 ROOT
