@<TRIPOS>MOLECULE
TH9
   51    51     1     0     0
SMALL
No Charge or Current Charge


@<TRIPOS>ATOM
      1 CAA         10.6020     3.3750    -0.5800 c3         1 TH9      -0.088100
      2 OAB         -6.9740     2.7860     1.7150 o          1 TH9      -0.695500
      3 OAC         -5.4370    -0.8580    -1.6840 o          1 TH9      -0.642100
      4 OAD         -8.7840     2.6080     0.5570 o          1 TH9      -0.695500
      5 OAE         -7.7740     0.7270    -1.0840 oh         1 TH9      -0.532100
      6 CAF         -5.7040     0.7760     0.0610 ce         1 TH9      -0.442200
      7 CAG          2.4180    -3.2200     1.7070 ca         1 TH9      -0.076000
      8 CAH          1.1880    -3.2420     1.0280 ca         1 TH9      -0.145000
      9 CAI          3.4200    -2.3140     1.3200 ca         1 TH9      -0.208000
     10 CAJ          1.9590    -1.4550    -0.4260 ca         1 TH9      -0.143000
     11 CAK          9.8190     2.2640     0.1470 c3         1 TH9      -0.075400
     12 CAL          8.4050     2.0430    -0.4320 c3         1 TH9      -0.075400
     13 CAM          7.6210     0.9290     0.2970 c3         1 TH9      -0.074400
     14 CAN          6.2060     0.7070    -0.2810 c3         1 TH9      -0.081400
     15 CAO         -1.3950    -1.3910    -0.1680 c3         1 TH9      -0.093400
     16 CAP         -2.7530    -1.3970    -0.8950 c3         1 TH9       0.113000
     17 CAQ          5.4260    -0.4040     0.4480 c3         1 TH9       0.167600
     18 NAS         -3.6910    -0.4500    -0.2960 ns         1 TH9      -0.531900
     19 OAT          4.1360    -0.5140    -0.1760 os         1 TH9      -0.351100
     20 CAU         -7.6250     2.2920     0.8020 c          1 TH9       0.677200
     21 CAV         -4.9740    -0.2460    -0.7340 c          1 TH9       0.626300
     22 CAW         -6.9910     1.2230    -0.1000 cf         1 TH9       0.087900
     23 CAX          0.9520    -2.3620    -0.0440 ca         1 TH9      -0.034300
     24 CAY          3.1910    -1.4260     0.2480 ca         1 TH9       0.143100
     25 H1          11.5970     3.4950    -0.1360 hc         1 TH9       0.031033
     26 H2          10.7270     3.1300    -1.6420 hc         1 TH9       0.031033
     27 H3          10.0740     4.3330    -0.5050 hc         1 TH9       0.031033
     28 H5          -8.6330     1.2010    -0.9880 ho         1 TH9       0.492000
     29 H6          -5.1270     1.2140     0.8710 ha         1 TH9       0.192000
     30 H7           2.5920    -3.9040     2.5350 ha         1 TH9       0.105000
     31 H8           0.4170    -3.9450     1.3360 ha         1 TH9       0.116000
     32 H9           4.3620    -2.3170     1.8620 ha         1 TH9       0.110000
     33 H10          1.7870    -0.7670    -1.2500 ha         1 TH9       0.127000
     34 H11         10.3880     1.3280     0.0840 hc         1 TH9       0.035700
     35 H12          9.7410     2.5210     1.2100 hc         1 TH9       0.035700
     36 H13          7.8390     2.9810    -0.3700 hc         1 TH9       0.040200
     37 H14          8.4870     1.7880    -1.4960 hc         1 TH9       0.040200
     38 H15          8.1860    -0.0090     0.2350 hc         1 TH9       0.037200
     39 H16          7.5390     1.1840     1.3620 hc         1 TH9       0.037200
     40 H17          5.6370     1.6430    -0.2160 hc         1 TH9       0.055200
     41 H18          6.2850     0.4490    -1.3440 hc         1 TH9       0.055200
     42 H19         -0.9720    -0.3790    -0.2010 hc         1 TH9       0.045700
     43 H20         -1.5500    -1.6420     0.8890 hc         1 TH9       0.045700
     44 H21         -2.6060    -1.1290    -1.9500 h1         1 TH9       0.036200
     45 H22         -3.1900    -2.4030    -0.8500 h1         1 TH9       0.036200
     46 H23          5.9780    -1.3500     0.3700 h1         1 TH9       0.031200
     47 H24          5.3230    -0.1420     1.5100 h1         1 TH9       0.031200
     48 H25         -0.8080    -3.3930    -0.7560 hc         1 TH9       0.049200
     49 H26         -0.2310    -2.1380    -1.8370 hc         1 TH9       0.049200
     50 H27         -3.3870     0.0990     0.4980 hn         1 TH9       0.306500
     51 CAR         -0.3820    -2.3820    -0.7780 c3         1 TH9      -0.034100
@<TRIPOS>BOND
     1     1    11 1   
     2     1    25 1   
     3     1    26 1   
     4     1    27 1   
     5     2    20 1   
     6     3    21 2   
     7     4    20 1   
     8     5    22 1   
     9     5    28 1   
    10     6    21 1   
    11     6    22 2   
    12     6    29 1   
    13     7     8 ar  
    14     7     9 ar  
    15     7    30 1   
    16     8    23 ar  
    17     8    31 1   
    18     9    24 ar  
    19     9    32 1   
    20    10    23 ar  
    21    10    24 ar  
    22    10    33 1   
    23    11    12 1   
    24    11    34 1   
    25    11    35 1   
    26    12    13 1   
    27    12    36 1   
    28    12    37 1   
    29    13    14 1   
    30    13    38 1   
    31    13    39 1   
    32    14    17 1   
    33    14    40 1   
    34    14    41 1   
    35    15    16 1   
    36    15    42 1   
    37    15    43 1   
    38    15    51 1   
    39    16    18 1   
    40    16    44 1   
    41    16    45 1   
    42    17    19 1   
    43    17    46 1   
    44    17    47 1   
    45    18    21 1   
    46    18    50 1   
    47    19    24 1   
    48    20    22 1   
    49    23    51 1   
    50    48    51 1   
    51    49    51 1   
@<TRIPOS>SUBSTRUCTURE
     1 TH9         1 TEMP              0 ****  ****    0 ROOT
