@<TRIPOS>MOLECULE
THA
   29    31     1     0     0
SMALL
No Charge or Current Charge


@<TRIPOS>ATOM
      1 C1          -1.0030    -0.0030     3.7090 ca         1 THA      -0.096000
      2 C2          -1.6360    -0.0060     2.4560 ca         1 THA      -0.094000
      3 C3          -0.8900    -0.0050     1.2620 ca         1 THA       0.309000
      4 C4           0.5240     0.0000     1.3320 ca         1 THA      -0.133000
      5 C5           1.1590     0.0020     2.6010 ca         1 THA      -0.085000
      6 C6           0.3960     0.0010     3.7790 ca         1 THA      -0.124000
      7 N7          -1.5480    -0.0060     0.0850 nb         1 THA      -0.713000
      8 C8          -0.8410    -0.0060    -1.0620 ca         1 THA       0.419300
      9 C9           0.5670    -0.0140    -1.1020 ca         1 THA      -0.228300
     10 C10          1.2560     0.0020     0.1240 ca         1 THA       0.362000
     11 C11         -1.6970    -0.0120    -2.3310 c6         1 THA      -0.133700
     12 C12         -0.9180     0.4060    -3.5970 c6         1 THA      -0.073400
     13 C13          0.4210    -0.3520    -3.6670 c6         1 THA      -0.071400
     14 C14          1.3140    -0.0040    -2.4540 c6         1 THA      -0.013100
     15 N15          2.6310     0.0290     0.1230 nv         1 THA      -1.093000
     16 H1          -1.5960    -0.0040     4.6210 ha         1 THA       0.114000
     17 H2          -2.7220    -0.0100     2.4060 ha         1 THA       0.129000
     18 H5           2.2420     0.0010     2.6910 ha         1 THA       0.102000
     19 H6           0.8920     0.0020     4.7480 ha         1 THA       0.112000
     20 H111        -2.5640     0.6510    -2.2050 hc         1 THA       0.062700
     21 H112        -2.1030    -1.0220    -2.4720 hc         1 THA       0.062700
     22 H121        -0.7320     1.4890    -3.5830 hc         1 THA       0.043700
     23 H122        -1.5190     0.2000    -4.4940 hc         1 THA       0.043700
     24 H131         0.9470    -0.1070    -4.6000 hc         1 THA       0.042200
     25 H132         0.2320    -1.4340    -3.6900 hc         1 THA       0.042200
     26 H141         1.7510     0.9930    -2.6080 hc         1 THA       0.037200
     27 H142         2.1560    -0.7100    -2.4340 hc         1 THA       0.037200
     28 HN51         3.1240     0.2510     0.9830 hn         1 THA       0.469500
     29 HN52         3.1210     0.2060    -0.7490 hn         1 THA       0.469500
@<TRIPOS>BOND
     1     1     2 ar  
     2     1     6 ar  
     3     1    16 1   
     4     2     3 ar  
     5     2    17 1   
     6     3     4 ar  
     7     3     7 ar  
     8     4     5 ar  
     9     4    10 ar  
    10     5     6 ar  
    11     5    18 1   
    12     6    19 1   
    13     7     8 ar  
    14     8     9 ar  
    15     8    11 1   
    16     9    10 ar  
    17     9    14 1   
    18    10    15 1   
    19    11    12 1   
    20    11    20 1   
    21    11    21 1   
    22    12    13 1   
    23    12    22 1   
    24    12    23 1   
    25    13    14 1   
    26    13    24 1   
    27    13    25 1   
    28    14    26 1   
    29    14    27 1   
    30    15    28 1   
    31    15    29 1   
@<TRIPOS>SUBSTRUCTURE
     1 THA         1 TEMP              0 ****  ****    0 ROOT
