@<TRIPOS>MOLECULE
THA
   29    31     1     0     0
SMALL
abcg2


@<TRIPOS>ATOM
      1 C1          -1.0050    -0.0110     3.6570 ca         1 THA      -0.096000
      2 C2          -1.6280     0.0020     2.4390 ca         1 THA      -0.094000
      3 C3          -0.8800     0.0070     1.2370 ca         1 THA       0.309000
      4 C4           0.5330     0.0110     1.3160 ca         1 THA      -0.133000
      5 C5           1.1500    -0.0080     2.5870 ca         1 THA      -0.085000
      6 C6           0.4020    -0.0190     3.7330 ca         1 THA      -0.124000
      7 N7          -1.5530     0.0170     0.0680 nb         1 THA      -0.713000
      8 C8          -0.8610     0.0000    -1.0520 ca         1 THA       0.419300
      9 C9           0.5470    -0.0130    -1.1110 ca         1 THA      -0.228300
     10 C10          1.2600     0.0270     0.0850 ca         1 THA       0.362000
     11 C11         -1.6770    -0.0110    -2.3190 c6         1 THA      -0.133700
     12 C12         -0.8930     0.4130    -3.5510 c6         1 THA      -0.073400
     13 C13          0.4110    -0.3650    -3.6190 c6         1 THA      -0.071400
     14 C14          1.2910    -0.0320    -2.4220 c6         1 THA      -0.013100
     15 N15          2.6180     0.0360     0.0850 nv         1 THA      -1.093000
     16 H1          -1.5930    -0.0180     4.5660 ha         1 THA       0.114000
     17 H2          -2.7080     0.0040     2.3660 ha         1 THA       0.129000
     18 H5           2.2290    -0.0250     2.6780 ha         1 THA       0.102000
     19 H6           0.8910    -0.0370     4.6980 ha         1 THA       0.112000
     20 H111        -2.5540     0.6220    -2.1720 hc         1 THA       0.062700
     21 H112        -2.0590    -1.0270    -2.4690 hc         1 THA       0.062700
     22 H121        -0.6800     1.4860    -3.5110 hc         1 THA       0.043700
     23 H122        -1.4950     0.2460    -4.4460 hc         1 THA       0.043700
     24 H131         0.9530    -0.1450    -4.5400 hc         1 THA       0.042200
     25 H132         0.1910    -1.4370    -3.6320 hc         1 THA       0.042200
     26 H141         1.7570     0.9480    -2.5860 hc         1 THA       0.037200
     27 H142         2.1160    -0.7500    -2.3700 hc         1 THA       0.037200
     28 HN51         3.1070     0.3160     0.9170 hn         1 THA       0.469500
     29 HN52         3.0940     0.3020    -0.7600 hn         1 THA       0.469500
@<TRIPOS>BOND
     1     1     2 ar  
     2     1     6 ar  
     3     1    16 1   
     4     2     3 ar  
     5     2    17 1   
     6     3     4 ar  
     7     3     7 ar  
     8     4     5 ar  
     9     4    10 ar  
    10     5     6 ar  
    11     5    18 1   
    12     6    19 1   
    13     7     8 ar  
    14     8     9 ar  
    15     8    11 1   
    16     9    10 ar  
    17     9    14 1   
    18    10    15 1   
    19    11    12 1   
    20    11    20 1   
    21    11    21 1   
    22    12    13 1   
    23    12    22 1   
    24    12    23 1   
    25    13    14 1   
    26    13    24 1   
    27    13    25 1   
    28    14    26 1   
    29    14    27 1   
    30    15    28 1   
    31    15    29 1   
@<TRIPOS>SUBSTRUCTURE
     1 THA         1 TEMP              0 ****  ****    0 ROOT
