@<TRIPOS>MOLECULE
THC
   21    20     1     0     0
SMALL
No Charge or Current Charge


@<TRIPOS>ATOM
      1 N           14.2060    16.5950    35.4600 ns         1 THC      -0.458900
      2 CN          14.6520    15.8780    36.5470 c          1 THC       0.601100
      3 ON          15.5890    15.0920    36.4900 o          1 THC      -0.647100
      4 CM          13.8970    16.1580    37.8440 c3         1 THC      -0.179100
      5 CA          14.7210    16.4660    34.0680 c3         1 THC      -0.031300
      6 CB          13.7870    15.6190    33.1560 c3         1 THC       0.161300
      7 OG1         13.4990    14.3560    33.7710 oh         1 THC      -0.661000
      8 CG2         14.3830    15.3520    31.7570 c3         1 THC      -0.111100
      9 C           14.9630    17.8770    33.4620 c          1 THC       0.714000
     10 O           14.0210    18.6560    33.4020 o          1 THC      -0.723500
     11 OXT         16.1060    18.1860    33.1540 o          1 THC      -0.723500
     12 H           13.4370    17.2340    35.6250 hn         1 THC       0.321500
     13 HM1         12.8290    15.9730    37.6830 hc         1 THC       0.041367
     14 HM2         14.2830    15.5820    38.6930 hc         1 THC       0.041367
     15 HM3         13.9170    17.2350    38.0450 hc         1 THC       0.041367
     16 HA          15.6990    15.9700    34.1030 h1         1 THC       0.078700
     17 HB          12.8480    16.1740    33.0220 h1         1 THC       0.027700
     18 HG1         12.8720    13.8870    33.1800 ho         1 THC       0.409000
     19 HG21        13.6990    14.7430    31.1540 hc         1 THC       0.033367
     20 HG22        14.5540    16.2910    31.2190 hc         1 THC       0.033367
     21 HG23        15.3400    14.8210    31.8340 hc         1 THC       0.033367
@<TRIPOS>BOND
     1     1     2 1   
     2     1     5 1   
     3     1    12 1   
     4     2     3 2   
     5     2     4 1   
     6     4    13 1   
     7     4    14 1   
     8     4    15 1   
     9     5     6 1   
    10     5     9 1   
    11     5    16 1   
    12     6     7 1   
    13     6     8 1   
    14     6    17 1   
    15     7    18 1   
    16     8    19 1   
    17     8    20 1   
    18     8    21 1   
    19     9    10 1   
    20     9    11 1   
@<TRIPOS>SUBSTRUCTURE
     1 THC         1 TEMP              0 ****  ****    0 ROOT
