@<TRIPOS>MOLECULE
THC
   21    20     1     0     0
SMALL
bcc


@<TRIPOS>ATOM
      1 N           14.2130    16.5360    35.4160 ns         1 THC      -0.525900
      2 CN          14.5540    15.8220    36.4960 c          1 THC       0.668100
      3 ON          15.3990    14.9340    36.4960 o          1 THC      -0.647100
      4 CM          13.8130    16.1900    37.7620 c3         1 THC      -0.179100
      5 CA          14.7800    16.3960    34.0940 c3         1 THC      -0.031300
      6 CB          13.8070    15.6540    33.1670 c3         1 THC       0.138100
      7 OG1         13.5000    14.4140    33.7750 oh         1 THC      -0.598800
      8 CG2         14.3750    15.4490    31.7700 c3         1 THC      -0.111100
      9 C           15.0800    17.8080    33.5230 c          1 THC       0.924600
     10 O           14.2160    18.6750    33.7640 o          1 THC      -0.828800
     11 OXT         16.1280    17.9420    32.8680 o          1 THC      -0.828800
     12 H           13.5600    17.2970    35.5190 hn         1 THC       0.321500
     13 HM1         13.2280    15.3330    38.0980 hc         1 THC       0.041367
     14 HM2         14.5300    16.4180    38.5510 hc         1 THC       0.041367
     15 HM3         13.1400    17.0370    37.6490 hc         1 THC       0.041367
     16 HA          15.7040    15.8200    34.1690 h1         1 THC       0.078700
     17 HB          12.8990    16.2700    33.0890 h1         1 THC       0.027700
     18 HG1         12.8300    13.9820    33.2370 ho         1 THC       0.370000
     19 HG21        13.6740    14.8770    31.1570 hc         1 THC       0.033367
     20 HG22        14.5530    16.3930    31.2600 hc         1 THC       0.033367
     21 HG23        15.3180    14.8990    31.8060 hc         1 THC       0.033367
@<TRIPOS>BOND
     1     1     2 1   
     2     1     5 1   
     3     1    12 1   
     4     2     3 2   
     5     2     4 1   
     6     4    13 1   
     7     4    14 1   
     8     4    15 1   
     9     5     6 1   
    10     5     9 1   
    11     5    16 1   
    12     6     7 1   
    13     6     8 1   
    14     6    17 1   
    15     7    18 1   
    16     8    19 1   
    17     8    20 1   
    18     8    21 1   
    19     9    10 1   
    20     9    11 1   
@<TRIPOS>SUBSTRUCTURE
     1 THC         1 TEMP              0 ****  ****    0 ROOT
