@<TRIPOS>MOLECULE
THE
   16    15     1     0     0
SMALL
abcg2


@<TRIPOS>ATOM
      1 C1           2.1580     0.2740    -0.4980 c3         1 THE       0.122600
      2 C2           0.8440    -0.3490    -0.0550 c3         1 THE       0.172300
      3 C3          -0.3490     0.4700    -0.5430 c3         1 THE      -0.021700
      4 C4          -1.6790    -0.2550    -0.2360 c          1 THE       0.702000
      5 O1           3.2190    -0.5750    -0.1210 oh         1 THE      -0.716000
      6 O2           0.7890    -0.5320     1.3430 oh         1 THE      -0.649000
      7 O3          -0.3610     1.7330     0.0780 oh         1 THE      -0.784000
      8 O4          -2.4780     0.4040     0.4690 o          1 THE      -0.714000
      9 O5          -1.8410    -1.3890    -0.7090 o          1 THE      -0.714000
     10 H11          2.2650     1.2730    -0.0550 h1         1 THE       0.014700
     11 H12          2.1220     0.4120    -1.5880 h1         1 THE       0.014700
     12 H2           0.7680    -1.3450    -0.5030 h1         1 THE       0.090700
     13 H3          -0.2690     0.5790    -1.6350 h1         1 THE       0.032700
     14 HO1          4.0440    -0.1270    -0.3280 ho         1 THE       0.474000
     15 HO2          0.6310     0.3340     1.7360 ho         1 THE       0.436000
     16 HO3         -1.2390     1.7330     0.5100 ho         1 THE       0.540000
@<TRIPOS>BOND
     1     1     2 1   
     2     1     5 1   
     3     1    10 1   
     4     1    11 1   
     5     2     3 1   
     6     2     6 1   
     7     2    12 1   
     8     3     4 1   
     9     3     7 1   
    10     3    13 1   
    11     4     8 1   
    12     4     9 1   
    13     5    14 1   
    14     6    15 1   
    15     7    16 1   
@<TRIPOS>SUBSTRUCTURE
     1 THE         1 TEMP              0 ****  ****    0 ROOT
