@<TRIPOS>MOLECULE
THE
   16    15     1     0     0
SMALL
No Charge or Current Charge


@<TRIPOS>ATOM
      1 C1           2.2040     0.2060    -0.5250 c3         1 THE       0.122600
      2 C2           0.8580    -0.3520     0.0350 c3         1 THE       0.172300
      3 C3          -0.3640     0.4940    -0.4200 c3         1 THE      -0.021700
      4 C4          -1.7030    -0.3210    -0.3310 c          1 THE       0.702000
      5 O1           3.3160    -0.6520    -0.2020 oh         1 THE      -0.716000
      6 O2           0.8670    -0.3550     1.4720 oh         1 THE      -0.649000
      7 O3          -0.4210     1.7520     0.3310 oh         1 THE      -0.784000
      8 O4          -2.6290     0.1900     0.2890 o          1 THE      -0.714000
      9 O5          -1.7920    -1.3840    -0.9280 o          1 THE      -0.714000
     10 H11          2.3750     1.2140    -0.1230 h1         1 THE       0.014700
     11 H12          2.1180     0.3010    -1.6160 h1         1 THE       0.014700
     12 H2           0.7440    -1.3750    -0.3520 h1         1 THE       0.090700
     13 H3          -0.2350     0.7180    -1.4880 h1         1 THE       0.032700
     14 HO1          4.1300    -0.2040    -0.5310 ho         1 THE       0.474000
     15 HO2          0.5360     0.5460     1.6920 ho         1 THE       0.436000
     16 HO3         -1.3820     1.8640     0.5620 ho         1 THE       0.540000
@<TRIPOS>BOND
     1     1     2 1   
     2     1     5 1   
     3     1    10 1   
     4     1    11 1   
     5     2     3 1   
     6     2     6 1   
     7     2    12 1   
     8     3     4 1   
     9     3     7 1   
    10     3    13 1   
    11     4     8 1   
    12     4     9 1   
    13     5    14 1   
    14     6    15 1   
    15     7    16 1   
@<TRIPOS>SUBSTRUCTURE
     1 THE         1 TEMP              0 ****  ****    0 ROOT
