@<TRIPOS>MOLECULE
THF
   55    57     1     0     0
SMALL
bcc


@<TRIPOS>ATOM
      1 N1           2.1830     0.9030    -5.4450 na         1 THF      -0.706000
      2 C2           2.7600    -0.3160    -5.4810 cc         1 THF       0.893100
      3 NA2          4.0920    -0.3660    -5.6430 nv         1 THF      -0.935800
      4 N3           2.0830    -1.4260    -5.3290 nd         1 THF      -0.788100
      5 C4           0.7430    -1.4130    -5.0860 c          1 THF       0.731700
      6 O4           0.1180    -2.4550    -4.9120 o          1 THF      -0.545100
      7 C4A          0.0850    -0.1040    -5.0320 cc         1 THF      -0.010200
      8 N5          -1.2550     0.0590    -4.7350 nh         1 THF      -0.688400
      9 C6          -1.5870     1.3200    -4.1060 c6         1 THF       0.119200
     10 C7          -0.8770     2.4260    -4.8460 c2         1 THF       0.413200
     11 N8           0.2920     2.2730    -5.3330 nf         1 THF      -0.569300
     12 C8A          0.8320     1.0110    -5.2380 cd         1 THF       0.219600
     13 C9          -1.2100     1.3480    -2.6220 c3         1 THF       0.221800
     14 N10         -1.8560     0.2590    -1.9410 nu         1 THF      -0.778600
     15 C11         -1.4430    -0.4600     2.1720 ca         1 THF      -0.144600
     16 C12         -2.0260    -1.3990     1.3170 ca         1 THF      -0.056000
     17 C13         -2.1460    -1.1650    -0.0350 ca         1 THF      -0.219500
     18 C14         -1.7020     0.0430    -0.6020 ca         1 THF       0.159600
     19 C15         -1.1360     0.9970     0.2560 ca         1 THF      -0.219500
     20 C16         -1.0150     0.7410     1.6120 ca         1 THF      -0.056000
     21 O           -2.0550    -1.6370     4.1320 o          1 THF      -0.647100
     22 N           -0.3750    -0.1500     4.3100 ns         1 THF      -0.493900
     23 CA          -0.2740    -0.2270     5.7480 c3         1 THF      -0.044300
     24 CB           1.0900     0.2930     6.2030 c3         1 THF      -0.057400
     25 CG           2.2640    -0.4870     5.6330 c3         1 THF      -0.203400
     26 CD           3.6540    -0.0600     6.1400 c          1 THF       0.922600
     27 OE1          3.7070     0.7980     7.0430 o          1 THF      -0.866800
     28 OE2          4.6290    -0.6250     5.6000 o          1 THF      -0.866800
     29 CT          -1.4160     0.5350     6.4690 c          1 THF       0.929600
     30 O1          -1.4970     0.3190     7.6960 o          1 THF      -0.848800
     31 O2          -2.1260     1.2970     5.7920 o          1 THF      -0.848800
     32 CP1         -2.2860    -0.7020    -5.3940 c3         1 THF       0.443600
     33 O3          -3.0360    -1.4850    -4.5020 oh         1 THF      -0.572800
     34 HN1          2.7240     1.7480    -5.5630 hn         1 THF       0.454800
     35 HN21         4.5000    -1.2650    -5.8350 hn         1 THF       0.441300
     36 HN22         4.6060     0.4370    -5.9660 hn         1 THF       0.441300
     37 H6          -2.6660     1.4760    -4.1890 h1         1 THF       0.070700
     38 H7          -1.3730     3.3800    -4.9910 h4         1 THF       0.031800
     39 H91         -0.1170     1.3150    -2.5110 h1         1 THF       0.043200
     40 H92         -1.5410     2.3060    -2.2130 h1         1 THF       0.043200
     41 HN0         -1.9990    -0.5680    -2.5040 hn         1 THF       0.428800
     42 H12         -2.3840    -2.3380     1.7190 ha         1 THF       0.145000
     43 H13         -2.5920    -1.9210    -0.6710 ha         1 THF       0.113500
     44 H15         -0.7870     1.9460    -0.1260 ha         1 THF       0.113500
     45 H16         -0.5880     1.5220     2.2300 ha         1 THF       0.145000
     46 HN           0.1730     0.5560     3.8460 hn         1 THF       0.295500
     47 HA          -0.3440    -1.2810     6.0370 h1         1 THF       0.054700
     48 HB1          1.1800     1.3530     5.9410 hc         1 THF       0.050200
     49 HB2          1.1140     0.2480     7.2910 hc         1 THF       0.050200
     50 HG1          2.1340    -1.5530     5.8570 hc         1 THF       0.010200
     51 HG2          2.2720    -0.4310     4.5400 hc         1 THF       0.010200
     52 HCP1        -2.9430    -0.0180    -5.9410 h2         1 THF       0.045700
     53 HCP2        -1.8120    -1.3610    -6.1160 h2         1 THF       0.045700
     54 HO3         -3.8310    -1.0040    -4.2570 ho         1 THF       0.401000
     55 C           -1.3320    -0.7860     3.6210 c          1 THF       0.673700
@<TRIPOS>BOND
     1     1     2 1   
     2     1    12 1   
     3     1    34 1   
     4     2     3 1   
     5     2     4 2   
     6     3    35 1   
     7     3    36 1   
     8     4     5 1   
     9     5     6 2   
    10     5     7 1   
    11     7     8 1   
    12     7    12 2   
    13     8     9 1   
    14     8    32 1   
    15     9    10 1   
    16     9    13 1   
    17     9    37 1   
    18    10    11 2   
    19    10    38 1   
    20    11    12 1   
    21    13    14 1   
    22    13    39 1   
    23    13    40 1   
    24    14    18 1   
    25    14    41 1   
    26    15    16 ar  
    27    15    20 ar  
    28    15    55 1   
    29    16    17 ar  
    30    16    42 1   
    31    17    18 ar  
    32    17    43 1   
    33    18    19 ar  
    34    19    20 ar  
    35    19    44 1   
    36    20    45 1   
    37    21    55 2   
    38    22    23 1   
    39    22    46 1   
    40    22    55 1   
    41    23    24 1   
    42    23    29 1   
    43    23    47 1   
    44    24    25 1   
    45    24    48 1   
    46    24    49 1   
    47    25    26 1   
    48    25    50 1   
    49    25    51 1   
    50    26    27 1   
    51    26    28 1   
    52    29    30 1   
    53    29    31 1   
    54    32    33 1   
    55    32    52 1   
    56    32    53 1   
    57    33    54 1   
@<TRIPOS>SUBSTRUCTURE
     1 THF         1 TEMP              0 ****  ****    0 ROOT
