@<TRIPOS>MOLECULE
THF
   55    57     1     0     0
SMALL
No Charge or Current Charge


@<TRIPOS>ATOM
      1 N1           0.5120     1.1170    -7.3890 na         1 THF      -0.761200
      2 C2           0.1410     0.1200    -8.2020 cc         1 THF       0.893100
      3 NA2          0.3430     0.2690    -9.4790 nv         1 THF      -1.046200
      4 N3          -0.3770    -0.9610    -7.7570 nd         1 THF      -0.788100
      5 C4          -0.6100    -1.1450    -6.4010 c          1 THF       0.731700
      6 O4          -1.0950    -2.2150    -6.0620 o          1 THF      -0.545100
      7 C4A         -0.2400    -0.0230    -5.4730 cc         1 THF      -0.010200
      8 N5          -0.4360    -0.0840    -4.0710 nh         1 THF      -0.688400
      9 C6           0.2850     0.9260    -3.2100 c6         1 THF       0.119200
     10 C7           0.7060     2.1890    -3.9810 c2         1 THF       0.413200
     11 N8           0.7320     2.2140    -5.2970 nf         1 THF      -0.569300
     12 C8A          0.3470     1.1130    -6.0230 cd         1 THF       0.219600
     13 C9           1.5830     0.3240    -2.5630 c3         1 THF       0.221800
     14 N10          1.3560    -0.8370    -1.6630 nu         1 THF      -0.972200
     15 C11         -0.2170    -0.8730     2.2690 ca         1 THF      -0.144600
     16 C12          0.2710    -2.0490     1.6570 ca         1 THF      -0.038000
     17 C13          0.7920    -2.0160     0.3520 ca         1 THF      -0.201500
     18 C14          0.8340    -0.8170    -0.3680 ca         1 THF       0.298000
     19 C15          0.3580     0.3600     0.2310 ca         1 THF      -0.201500
     20 C16         -0.1640     0.3380     1.5360 ca         1 THF      -0.038000
     21 O           -0.8030    -1.9930     4.3100 o          1 THF      -0.647100
     22 N           -1.2460     0.2390     4.2150 ns         1 THF      -0.426900
     23 CA          -1.7910     0.4140     5.5840 c3         1 THF      -0.044300
     24 CB          -0.7310     0.9780     6.5690 c3         1 THF      -0.057400
     25 CG           0.5040     0.0650     6.7880 c3         1 THF      -0.203400
     26 CD           1.4260     0.6690     7.8640 c          1 THF       0.712000
     27 OE1          1.2200     0.3770     9.0320 o          1 THF      -0.761500
     28 OE2          2.2920     1.4540     7.5090 o          1 THF      -0.761500
     29 CT          -3.0590     1.3210     5.5420 c          1 THF       0.719000
     30 O1          -4.0910     0.8970     6.0430 o          1 THF      -0.743500
     31 O2          -3.0010     2.3810     4.9310 o          1 THF      -0.743500
     32 CP1         -1.5140    -0.8480    -3.4350 c3         1 THF       0.466800
     33 O3          -0.9440    -1.9210    -2.7270 oh         1 THF      -0.635000
     34 HN1          0.9580     1.9110    -7.8160 hn         1 THF       0.510000
     35 HN21        -0.0960    -0.4710   -10.0090 hn         1 THF       0.496500
     36 HN22         0.1660     1.1950    -9.8390 hn         1 THF       0.496500
     37 H6          -0.3760     1.2550    -2.3970 h1         1 THF       0.070700
     38 H7           1.0000     3.0630    -3.4050 h4         1 THF       0.031800
     39 H91          2.2440     0.0150    -3.3840 h1         1 THF       0.043200
     40 H92          2.1070     1.1170    -2.0110 h1         1 THF       0.043200
     41 HN0          1.9160    -1.6690    -1.8740 hn         1 THF       0.484000
     42 H12          0.2480    -2.9960     2.1920 ha         1 THF       0.127000
     43 H13          1.1580    -2.9340    -0.0990 ha         1 THF       0.095500
     44 H15          0.3960     1.3070    -0.2980 ha         1 THF       0.095500
     45 H16         -0.5190     1.2730     1.9620 ha         1 THF       0.127000
     46 HN          -1.2150     1.0550     3.6180 hn         1 THF       0.295500
     47 HA          -2.1170    -0.5650     5.9570 h1         1 THF       0.054700
     48 HB1         -0.3950     1.9610     6.2150 hc         1 THF       0.050200
     49 HB2         -1.2180     1.1460     7.5370 hc         1 THF       0.050200
     50 HG1          0.1060    -0.9010     7.1230 hc         1 THF       0.010200
     51 HG2          1.0250     0.0180     5.8240 hc         1 THF       0.010200
     52 HCP1        -2.0430    -0.1910    -2.7320 h2         1 THF       0.045700
     53 HCP2        -2.2260    -1.2150    -4.1830 h2         1 THF       0.045700
     54 HO3         -0.1230    -1.5080    -2.3500 ho         1 THF       0.440000
     55 C           -0.7710    -0.9430     3.6790 c          1 THF       0.606700
@<TRIPOS>BOND
     1     1     2 1   
     2     1    12 1   
     3     1    34 1   
     4     2     3 1   
     5     2     4 2   
     6     3    35 1   
     7     3    36 1   
     8     4     5 1   
     9     5     6 2   
    10     5     7 1   
    11     7     8 1   
    12     7    12 2   
    13     8     9 1   
    14     8    32 1   
    15     9    10 1   
    16     9    13 1   
    17     9    37 1   
    18    10    11 2   
    19    10    38 1   
    20    11    12 1   
    21    13    14 1   
    22    13    39 1   
    23    13    40 1   
    24    14    18 1   
    25    14    41 1   
    26    15    16 ar  
    27    15    20 ar  
    28    15    55 1   
    29    16    17 ar  
    30    16    42 1   
    31    17    18 ar  
    32    17    43 1   
    33    18    19 ar  
    34    19    20 ar  
    35    19    44 1   
    36    20    45 1   
    37    21    55 2   
    38    22    23 1   
    39    22    46 1   
    40    22    55 1   
    41    23    24 1   
    42    23    29 1   
    43    23    47 1   
    44    24    25 1   
    45    24    48 1   
    46    24    49 1   
    47    25    26 1   
    48    25    50 1   
    49    25    51 1   
    50    26    27 1   
    51    26    28 1   
    52    29    30 1   
    53    29    31 1   
    54    32    33 1   
    55    32    52 1   
    56    32    53 1   
    57    33    54 1   
@<TRIPOS>SUBSTRUCTURE
     1 THF         1 TEMP              0 ****  ****    0 ROOT
