@<TRIPOS>MOLECULE
THG
   53    55     1     0     0
SMALL
abcg2


@<TRIPOS>ATOM
      1 N3           1.9460     1.2880     5.0920 ns         1 THG      -0.433400
      2 C2           2.5690     0.1070     5.3090 cc         1 THG       0.724800
      3 N1           1.9170    -1.0170     5.4090 nd         1 THG      -0.751300
      4 C8A          0.5680    -0.9630     5.3010 cd         1 THG       0.428600
      5 C4A         -0.1440     0.2060     5.0950 cc         1 THG      -0.211200
      6 C4           0.5630     1.4190     4.9560 c          1 THG       0.587200
      7 N8          -0.0890    -2.1400     5.3770 nu         1 THG      -0.827200
      8 C7          -1.5320    -2.1910     5.3780 c6         1 THG       0.240800
      9 C6          -2.0850    -1.0610     4.5160 c6         1 THG       0.151500
     10 N5          -1.5560     0.1900     5.0290 nu         1 THG      -0.717200
     11 C9          -1.7790    -1.2900     3.0330 c3         1 THG       0.189800
     12 N10         -2.4160    -0.2660     2.2430 nu         1 THG      -0.973200
     13 C12         -2.1070    -0.0110     0.9380 ca         1 THG       0.301000
     14 C3          -2.9480     0.8240     0.1790 ca         1 THG      -0.202500
     15 C10         -2.6490     1.1350    -1.1290 ca         1 THG      -0.036500
     16 C1          -1.5110     0.6240    -1.7590 ca         1 THG      -0.145600
     17 C13         -0.6770    -0.2000    -1.0060 ca         1 THG      -0.036500
     18 C5          -0.9610    -0.5210     0.3100 ca         1 THG      -0.202500
     19 C11         -1.2430     1.0080    -3.1710 c          1 THG       0.599700
     20 N           -0.3440     0.2680    -3.8410 ns         1 THG      -0.421900
     21 CA          -0.0840     0.4640    -5.2480 c3         1 THG      -0.050300
     22 C           -1.2370    -0.0510    -6.1470 c          1 THG       0.717000
     23 OX2         -2.0950    -0.7850    -5.6270 o          1 THG      -0.744000
     24 OX1         -1.1780     0.3120    -7.3400 o          1 THG      -0.744000
     25 CB           1.2400    -0.2000    -5.6290 c3         1 THG      -0.054400
     26 CG           2.4370     0.3890    -4.8980 c3         1 THG      -0.200400
     27 CD           3.8140    -0.1540    -5.3180 c          1 THG       0.712000
     28 OE1          3.8520    -1.0360    -6.1980 o          1 THG      -0.762000
     29 OE2          4.7980     0.3440    -4.7290 o          1 THG      -0.762000
     30 O11         -1.8030     1.9770    -3.6790 o          1 THG      -0.642100
     31 O4           0.0710     2.5300     4.7390 o          1 THG      -0.569000
     32 N2           3.9090     0.1270     5.4680 nv         1 THG      -1.037200
     33 HN3          2.4910     2.1360     5.0180 hn         1 THG       0.325500
     34 HN8          0.4410    -2.9680     5.5870 hn         1 THG       0.500000
     35 HC71        -1.9380    -2.0980     6.3900 h1         1 THG       0.042200
     36 HC72        -1.8510    -3.1580     4.9880 h1         1 THG       0.042200
     37 HC6         -3.1710    -1.0480     4.6510 h1         1 THG       0.058700
     38 HN5         -1.8990     0.9830     4.5020 hn         1 THG       0.461000
     39 HC91        -0.6990    -1.2410     2.8840 h1         1 THG       0.045200
     40 HC92        -2.1010    -2.2960     2.7360 h1         1 THG       0.045200
     41 H10         -3.3700    -0.0620     2.4990 hn         1 THG       0.455000
     42 HC3         -3.8420     1.2320     0.6350 ha         1 THG       0.095000
     43 HC2         -3.3180     1.7850    -1.6780 ha         1 THG       0.128500
     44 HC61         0.2360    -0.6010    -1.4290 ha         1 THG       0.128500
     45 HC5         -0.2780    -1.1670     0.8430 ha         1 THG       0.095000
     46 HN          -0.0980    -0.6310    -3.4610 hn         1 THG       0.293500
     47 HCA          0.0210     1.5390    -5.4230 h1         1 THG       0.057700
     48 HCB1         1.1750    -1.2780    -5.4470 hc         1 THG       0.049200
     49 HCB2         1.3690    -0.0830    -6.7050 hc         1 THG       0.049200
     50 HCG1         2.4420     1.4770    -5.0330 hc         1 THG       0.010200
     51 HCG2         2.3330     0.2420    -3.8180 hc         1 THG       0.010200
     52 HN21         4.3750    -0.7630     5.4230 hn         1 THG       0.489000
     53 HN22         4.4400     0.9050     5.1110 hn         1 THG       0.489000
@<TRIPOS>BOND
     1     1     2 1   
     2     1     6 1   
     3     1    33 1   
     4     2     3 2   
     5     2    32 1   
     6     3     4 1   
     7     4     5 2   
     8     4     7 1   
     9     5     6 1   
    10     5    10 1   
    11     6    31 2   
    12     7     8 1   
    13     7    34 1   
    14     8     9 1   
    15     8    35 1   
    16     8    36 1   
    17     9    10 1   
    18     9    11 1   
    19     9    37 1   
    20    10    38 1   
    21    11    12 1   
    22    11    39 1   
    23    11    40 1   
    24    12    13 1   
    25    12    41 1   
    26    13    14 ar  
    27    13    18 ar  
    28    14    15 ar  
    29    14    42 1   
    30    15    16 ar  
    31    15    43 1   
    32    16    17 ar  
    33    16    19 1   
    34    17    18 ar  
    35    17    44 1   
    36    18    45 1   
    37    19    20 1   
    38    19    30 2   
    39    20    21 1   
    40    20    46 1   
    41    21    22 1   
    42    21    25 1   
    43    21    47 1   
    44    22    23 1   
    45    22    24 1   
    46    25    26 1   
    47    25    48 1   
    48    25    49 1   
    49    26    27 1   
    50    26    50 1   
    51    26    51 1   
    52    27    28 1   
    53    27    29 1   
    54    32    52 1   
    55    32    53 1   
@<TRIPOS>SUBSTRUCTURE
     1 THG         1 TEMP              0 ****  ****    0 ROOT
