@<TRIPOS>MOLECULE
THG
   53    55     1     0     0
SMALL
No Charge or Current Charge


@<TRIPOS>ATOM
      1 N3           2.2060     0.7610     6.6640 ns         1 THG      -0.433400
      2 C2           2.3820    -0.5330     6.9670 cc         1 THG       0.724800
      3 N1           1.5970    -1.5350     6.6830 nd         1 THG      -0.751300
      4 C8A          0.4730    -1.1620     5.9890 cd         1 THG       0.428600
      5 C4A          0.1830     0.1490     5.6340 cc         1 THG      -0.211200
      6 C4           1.1340     1.2230     5.9960 c          1 THG       0.587200
      7 N8          -0.3400    -2.1980     5.6870 nu         1 THG      -0.827200
      8 C7          -1.7330    -1.9300     5.2370 c6         1 THG       0.240800
      9 C6          -1.8620    -0.6080     4.3810 c6         1 THG       0.151500
     10 N5          -0.9890     0.4800     4.9250 nu         1 THG      -0.717200
     11 C9          -1.5510    -0.8850     2.8690 c3         1 THG       0.189800
     12 N10         -1.8440     0.2690     1.9810 nu         1 THG      -0.973200
     13 C12         -1.6830     0.3290     0.5980 ca         1 THG       0.301000
     14 C3          -2.1850     1.4370    -0.0950 ca         1 THG      -0.202500
     15 C10         -2.0420     1.5310    -1.4900 ca         1 THG      -0.036500
     16 C1          -1.3890     0.5120    -2.2200 ca         1 THG      -0.145600
     17 C13         -0.8820    -0.6050    -1.5100 ca         1 THG      -0.036500
     18 C5          -1.0300    -0.6900    -0.1140 ca         1 THG      -0.202500
     19 C11         -1.2520     0.6450    -3.7240 c          1 THG       0.599700
     20 N           -0.6190    -0.3930    -4.3810 ns         1 THG      -0.421900
     21 CA          -0.3420    -0.4580    -5.8370 c3         1 THG      -0.050300
     22 C           -0.6390    -1.8920    -6.3730 c          1 THG       0.717000
     23 OX2         -0.1670    -2.8500    -5.7730 o          1 THG      -0.744000
     24 OX1         -1.4070    -2.0090    -7.3180 o          1 THG      -0.744000
     25 CB           1.1080    -0.0210    -6.1790 c3         1 THG      -0.054400
     26 CG           1.4470     1.4490    -5.8170 c3         1 THG      -0.200400
     27 CD           2.8650     1.8020    -6.3040 c          1 THG       0.712000
     28 OE1          3.8050     1.5880    -5.5540 o          1 THG      -0.762000
     29 OE2          2.9950     2.2350    -7.4390 o          1 THG      -0.762000
     30 O11         -1.6870     1.6180    -4.3290 o          1 THG      -0.642100
     31 O4           0.9950     2.4090     5.7340 o          1 THG      -0.569000
     32 N2           3.4840    -0.8320     7.6290 nv         1 THG      -1.037200
     33 HN3          2.8840     1.4400     6.9650 hn         1 THG       0.325500
     34 HN8         -0.1220    -3.0490     6.1990 hn         1 THG       0.500000
     35 HC71        -2.3740    -1.8230     6.1240 h1         1 THG       0.042200
     36 HC72        -2.1280    -2.7830     4.6660 h1         1 THG       0.042200
     37 HC6         -2.9150    -0.2940     4.4330 h1         1 THG       0.058700
     38 HN5         -1.0370     1.4170     4.5120 hn         1 THG       0.461000
     39 HC91        -0.4920    -1.1680     2.7820 h1         1 THG       0.045200
     40 HC92        -2.1500    -1.7490     2.5480 h1         1 THG       0.045200
     41 H10         -2.3420     1.0560     2.3960 hn         1 THG       0.455000
     42 HC3         -2.6910     2.2330     0.4440 ha         1 THG       0.095000
     43 HC2         -2.4420     2.4030    -2.0040 ha         1 THG       0.128500
     44 HC61        -0.3690    -1.4150    -2.0210 ha         1 THG       0.128500
     45 HC5         -0.6310    -1.5560     0.4050 ha         1 THG       0.095000
     46 HN          -0.3180    -1.1750    -3.8150 hn         1 THG       0.293500
     47 HCA         -1.0340     0.2190    -6.3540 h1         1 THG       0.057700
     48 HCB1         1.8170    -0.6900    -5.6750 hc         1 THG       0.049200
     49 HCB2         1.2640    -0.1600    -7.2570 hc         1 THG       0.049200
     50 HCG1         0.6990     2.0640    -6.3340 hc         1 THG       0.010200
     51 HCG2         1.3930     1.5150    -4.7230 hc         1 THG       0.010200
     52 HN21         3.6590    -1.8280     7.6710 hn         1 THG       0.489000
     53 HN22         4.3000    -0.2600     7.4490 hn         1 THG       0.489000
@<TRIPOS>BOND
     1     1     2 1   
     2     1     6 1   
     3     1    33 1   
     4     2     3 2   
     5     2    32 1   
     6     3     4 1   
     7     4     5 2   
     8     4     7 1   
     9     5     6 1   
    10     5    10 1   
    11     6    31 2   
    12     7     8 1   
    13     7    34 1   
    14     8     9 1   
    15     8    35 1   
    16     8    36 1   
    17     9    10 1   
    18     9    11 1   
    19     9    37 1   
    20    10    38 1   
    21    11    12 1   
    22    11    39 1   
    23    11    40 1   
    24    12    13 1   
    25    12    41 1   
    26    13    14 ar  
    27    13    18 ar  
    28    14    15 ar  
    29    14    42 1   
    30    15    16 ar  
    31    15    43 1   
    32    16    17 ar  
    33    16    19 1   
    34    17    18 ar  
    35    17    44 1   
    36    18    45 1   
    37    19    20 1   
    38    19    30 2   
    39    20    21 1   
    40    20    46 1   
    41    21    22 1   
    42    21    25 1   
    43    21    47 1   
    44    22    23 1   
    45    22    24 1   
    46    25    26 1   
    47    25    48 1   
    48    25    49 1   
    49    26    27 1   
    50    26    50 1   
    51    26    51 1   
    52    27    28 1   
    53    27    29 1   
    54    32    52 1   
    55    32    53 1   
@<TRIPOS>SUBSTRUCTURE
     1 THG         1 TEMP              0 ****  ****    0 ROOT
