@<TRIPOS>MOLECULE
THH
   56    58     1     0     0
SMALL
abcg2


@<TRIPOS>ATOM
      1 OE1         22.9670    42.9450    52.3790 o          1 THH      -0.768500
      2 CD          22.8420    42.4930    51.2110 c          1 THH       0.705000
      3 OE2         22.2290    43.0630    50.2670 o          1 THH      -0.768500
      4 CG          23.5110    41.1480    50.8660 c3         1 THH      -0.193400
      5 CB          23.9040    40.2790    52.0520 c3         1 THH      -0.046400
      6 CA          24.6030    38.9660    51.6600 c3         1 THH      -0.040300
      7 CT          25.0340    38.2130    52.9450 c          1 THH       0.706000
      8 O1          24.3330    37.2290    53.2960 o          1 THH      -0.747500
      9 O2          26.0310    38.6760    53.5480 o          1 THH      -0.747500
     10 N           23.7520    38.0980    50.8620 ns         1 THH      -0.435900
     11 C           23.8560    37.9220    49.5320 c          1 THH       0.588700
     12 O           24.5510    38.6570    48.8130 o          1 THH      -0.660100
     13 C12         23.0850    36.7880    48.9490 ca         1 THH      -0.153600
     14 C13         22.7180    35.6480    49.6730 ca         1 THH      -0.043000
     15 C14         22.0800    34.5860    49.0590 ca         1 THH      -0.189500
     16 C15         21.7690    34.6170    47.6870 ca         1 THH       0.307000
     17 C16         22.1000    35.7820    46.9710 ca         1 THH      -0.189500
     18 C17         22.7560    36.8260    47.5920 ca         1 THH      -0.043000
     19 N10         21.1230    33.5440    47.1120 nu         1 THH      -0.940200
     20 C9          21.2390    33.2110    45.7070 c3         1 THH       0.224800
     21 C6          22.4310    32.2970    45.3560 c6         1 THH       0.138500
     22 C7          22.5450    32.1520    43.8290 c6         1 THH       0.207800
     23 N8          22.9780    33.4200    43.2710 nu         1 THH      -0.952100
     24 C8A         23.8080    34.2430    43.9490 ca         1 THH       0.391900
     25 N1          24.1820    35.3910    43.3510 nb         1 THH      -0.342000
     26 C4A         24.2040    33.9100    45.2600 ca         1 THH      -0.006000
     27 N5          23.6910    32.7690    45.9290 nh         1 THH      -0.710400
     28 C11         24.6650    31.7030    46.1660 c3         1 THH       0.175100
     29 C4          25.0390    34.8380    45.8690 ca         1 THH       0.421300
     30 O4          25.4650    34.6060    47.1250 oh         1 THH      -0.624300
     31 N3          25.4540    35.9590    45.2840 nb         1 THH      -0.326000
     32 C2          24.9890    36.1900    44.0470 ca         1 THH       0.415900
     33 NA2         25.4220    37.3360    43.4320 nv         1 THH      -1.046900
     34 HG1         24.4020    41.3820    50.2720 hc         1 THH       0.021200
     35 HG2         22.8450    40.6030    50.1950 hc         1 THH       0.021200
     36 HB1         23.0150    40.0350    52.6440 hc         1 THH       0.046200
     37 HB2         24.5770    40.8310    52.7070 hc         1 THH       0.046200
     38 HA          25.4920    39.1970    51.0730 h1         1 THH       0.054700
     39 HN          23.2540    37.4170    51.4160 hn         1 THH       0.321500
     40 H13         22.9690    35.5540    50.7220 ha         1 THH       0.133000
     41 H14         21.8400    33.6970    49.6320 ha         1 THH       0.094500
     42 H16         21.8690    35.8640    45.9190 ha         1 THH       0.094500
     43 H17         23.0330    37.6980    47.0140 ha         1 THH       0.133000
     44 H10         21.0530    32.7390    47.7180 hn         1 THH       0.448000
     45 H91         21.2870    34.1290    45.1280 h1         1 THH       0.048200
     46 H92         20.3310    32.6930    45.3920 h1         1 THH       0.048200
     47 H6          22.2390    31.3110    45.7820 h1         1 THH       0.052700
     48 H71         21.5850    31.8830    43.3880 h1         1 THH       0.036200
     49 H72         23.2570    31.3540    43.5950 h1         1 THH       0.036200
     50 HN8         22.6850    33.7020    42.3500 hn         1 THH       0.500000
     51 H111        24.9890    31.2070    45.2400 h1         1 THH       0.030033
     52 H112        25.5430    32.1200    46.6560 h1         1 THH       0.030033
     53 H113        24.2230    30.9550    46.8250 h1         1 THH       0.030033
     54 HO4         25.9820    35.3770    47.4070 ho         1 THH       0.501000
     55 HA21        24.8770    37.6530    42.6460 hn         1 THH       0.482000
     56 HA22        25.7730    38.0600    44.0380 hn         1 THH       0.482000
@<TRIPOS>BOND
     1     1     2 1   
     2     2     3 1   
     3     2     4 1   
     4     4     5 1   
     5     4    34 1   
     6     4    35 1   
     7     5     6 1   
     8     5    36 1   
     9     5    37 1   
    10     6     7 1   
    11     6    10 1   
    12     6    38 1   
    13     7     8 1   
    14     7     9 1   
    15    10    11 1   
    16    10    39 1   
    17    11    12 2   
    18    11    13 1   
    19    13    14 ar  
    20    13    18 ar  
    21    14    15 ar  
    22    14    40 1   
    23    15    16 ar  
    24    15    41 1   
    25    16    17 ar  
    26    16    19 1   
    27    17    18 ar  
    28    17    42 1   
    29    18    43 1   
    30    19    20 1   
    31    19    44 1   
    32    20    21 1   
    33    20    45 1   
    34    20    46 1   
    35    21    22 1   
    36    21    27 1   
    37    21    47 1   
    38    22    23 1   
    39    22    48 1   
    40    22    49 1   
    41    23    24 1   
    42    23    50 1   
    43    24    25 ar  
    44    24    26 ar  
    45    25    32 ar  
    46    26    27 1   
    47    26    29 ar  
    48    27    28 1   
    49    28    51 1   
    50    28    52 1   
    51    28    53 1   
    52    29    30 1   
    53    29    31 ar  
    54    30    54 1   
    55    31    32 ar  
    56    32    33 1   
    57    33    55 1   
    58    33    56 1   
@<TRIPOS>SUBSTRUCTURE
     1 THH         1 TEMP              0 ****  ****    0 ROOT
