@<TRIPOS>MOLECULE
THH
   56    58     1     0     0
SMALL
No Charge or Current Charge


@<TRIPOS>ATOM
      1 OE1         22.4440    42.8040    53.0140 o          1 THH      -0.768500
      2 CD          21.9480    41.7470    52.6540 c          1 THH       0.705000
      3 OE2         20.8140    41.4030    52.9500 o          1 THH      -0.768500
      4 CG          22.8180    40.7730    51.8400 c3         1 THH      -0.193400
      5 CB          23.5960    39.8280    52.7920 c3         1 THH      -0.046400
      6 CA          24.5970    38.8730    52.0880 c3         1 THH      -0.040300
      7 CT          25.4340    38.0720    53.1340 c          1 THH       0.706000
      8 O1          24.9120    37.1120    53.6870 o          1 THH      -0.747500
      9 O2          26.6090    38.3730    53.2890 o          1 THH      -0.747500
     10 N           23.9220    37.9380    51.1540 ns         1 THH      -0.435900
     11 C           23.7930    38.1100    49.7900 c          1 THH       0.588700
     12 O           24.2820    39.0760    49.2160 o          1 THH      -0.660100
     13 C12         23.0240    37.0380    49.0420 ca         1 THH      -0.153600
     14 C13         22.4280    35.9350    49.7000 ca         1 THH      -0.043000
     15 C14         21.7230    34.9630    48.9670 ca         1 THH      -0.189500
     16 C15         21.6030    35.0670    47.5740 ca         1 THH       0.307000
     17 C16         22.1780    36.1640    46.9140 ca         1 THH      -0.189500
     18 C17         22.8850    37.1380    47.6390 ca         1 THH      -0.043000
     19 N10         20.8990    34.0840    46.8800 nu         1 THH      -0.940200
     20 C9          21.2330    33.5710    45.5240 c3         1 THH       0.224800
     21 C6          22.5130    32.6530    45.4530 c6         1 THH       0.138500
     22 C7          22.5770    31.9340    44.0560 c6         1 THH       0.207800
     23 N8          23.0670    32.8540    43.0040 nu         1 THH      -0.952100
     24 C8A         24.0930    33.7540    43.2840 ca         1 THH       0.391900
     25 N1          24.6680    34.3060    42.2100 nb         1 THH      -0.342000
     26 C4A         24.4820    34.0450    44.6260 ca         1 THH      -0.006000
     27 N5          23.7970    33.4060    45.7370 nh         1 THH      -0.710400
     28 C11         24.3750    33.3050    47.0970 c3         1 THH       0.175100
     29 C4          25.5510    34.9910    44.7280 ca         1 THH       0.421300
     30 O4          26.0610    35.4170    45.9180 oh         1 THH      -0.624300
     31 N3          26.1290    35.5450    43.6500 nb         1 THH      -0.326000
     32 C2          25.6520    35.1660    42.4640 ca         1 THH       0.415900
     33 NA2         26.2370    35.7280    41.3860 nv         1 THH      -1.046900
     34 HG1         23.5800    41.3230    51.2740 hc         1 THH       0.021200
     35 HG2         22.1850    40.1280    51.2190 hc         1 THH       0.021200
     36 HB1         22.8810    39.2360    53.3770 hc         1 THH       0.046200
     37 HB2         24.1540    40.4400    53.5130 hc         1 THH       0.046200
     38 HA          25.3090    39.4830    51.5170 h1         1 THH       0.054700
     39 HN          23.5260    37.0950    51.5480 hn         1 THH       0.321500
     40 H13         22.4970    35.8110    50.7780 ha         1 THH       0.133000
     41 H14         21.2750    34.1220    49.4890 ha         1 THH       0.094500
     42 H16         22.0880    36.2660    45.8380 ha         1 THH       0.094500
     43 H17         23.3290    37.9750    47.1020 ha         1 THH       0.133000
     44 H10         20.4230    33.4170    47.4870 hn         1 THH       0.448000
     45 H91         21.3500    34.4010    44.8140 h1         1 THH       0.048200
     46 H92         20.3850    32.9710    45.1680 h1         1 THH       0.048200
     47 H6          22.3730    31.8600    46.2010 h1         1 THH       0.052700
     48 H71         21.5960    31.5130    43.7910 h1         1 THH       0.036200
     49 H72         23.2760    31.0890    44.1470 h1         1 THH       0.036200
     50 HN8         22.9660    32.5940    42.0220 hn         1 THH       0.500000
     51 H111        23.8060    32.5980    47.7160 h1         1 THH       0.030033
     52 H112        25.4120    32.9470    47.0470 h1         1 THH       0.030033
     53 H113        24.3580    34.2810    47.5990 h1         1 THH       0.030033
     54 HO4         26.7650    36.0590    45.6910 ho         1 THH       0.501000
     55 HA21        25.7700    35.6410    40.4870 hn         1 THH       0.482000
     56 HA22        26.8270    36.5440    41.5230 hn         1 THH       0.482000
@<TRIPOS>BOND
     1     1     2 1   
     2     2     3 1   
     3     2     4 1   
     4     4     5 1   
     5     4    34 1   
     6     4    35 1   
     7     5     6 1   
     8     5    36 1   
     9     5    37 1   
    10     6     7 1   
    11     6    10 1   
    12     6    38 1   
    13     7     8 1   
    14     7     9 1   
    15    10    11 1   
    16    10    39 1   
    17    11    12 2   
    18    11    13 1   
    19    13    14 ar  
    20    13    18 ar  
    21    14    15 ar  
    22    14    40 1   
    23    15    16 ar  
    24    15    41 1   
    25    16    17 ar  
    26    16    19 1   
    27    17    18 ar  
    28    17    42 1   
    29    18    43 1   
    30    19    20 1   
    31    19    44 1   
    32    20    21 1   
    33    20    45 1   
    34    20    46 1   
    35    21    22 1   
    36    21    27 1   
    37    21    47 1   
    38    22    23 1   
    39    22    48 1   
    40    22    49 1   
    41    23    24 1   
    42    23    50 1   
    43    24    25 ar  
    44    24    26 ar  
    45    25    32 ar  
    46    26    27 1   
    47    26    29 ar  
    48    27    28 1   
    49    28    51 1   
    50    28    52 1   
    51    28    53 1   
    52    29    30 1   
    53    29    31 ar  
    54    30    54 1   
    55    31    32 ar  
    56    32    33 1   
    57    33    55 1   
    58    33    56 1   
@<TRIPOS>SUBSTRUCTURE
     1 THH         1 TEMP              0 ****  ****    0 ROOT
