@<TRIPOS>MOLECULE
THI
   32    35     1     0     0
SMALL
No Charge or Current Charge


@<TRIPOS>ATOM
      1 S1          -1.4930    -1.9490     0.3630 ss         1 THI      -0.458000
      2 C2          -3.0120    -0.8560     0.4430 c5         1 THI       0.043600
      3 C3          -2.5190     0.5980     0.6750 c5         1 THI       0.087000
      4 N4          -1.2820     0.5990    -0.1150 n          1 THI      -0.387800
      5 C5          -1.1420     1.1650    -1.3810 c          1 THI       0.579600
      6 O5          -1.8750     1.9960    -1.8990 o          1 THI      -0.511000
      7 C6           0.0380     0.5110    -1.9760 ca         1 THI      -0.163600
      8 C7           0.6470     0.7340    -3.2190 ca         1 THI      -0.037000
      9 C8           1.7620    -0.0590    -3.5590 ca         1 THI      -0.119000
     10 C9           2.2340    -1.0480    -2.6660 ca         1 THI      -0.085000
     11 C10          1.5970    -1.2560    -1.4240 ca         1 THI      -0.082000
     12 C11          0.4870    -0.4630    -1.0940 ca         1 THI      -0.054300
     13 C12         -0.3400    -0.4970     0.1910 c5         1 THI       0.358000
     14 C1           0.4500    -0.0870     1.4480 ca         1 THI      -0.081300
     15 C13          0.6050    -0.9670     2.5440 ca         1 THI      -0.085500
     16 C14          1.3390    -0.5800     3.6790 ca         1 THI      -0.115000
     17 C4           1.9360     0.6880     3.7360 ca         1 THI      -0.101000
     18 C15          1.8020     1.5690     2.6520 ca         1 THI      -0.115000
     19 C16          1.0690     1.1830     1.5170 ca         1 THI      -0.085500
     20 H21         -3.6950    -1.1890     1.2350 h1         1 THI       0.079200
     21 H22         -3.5460    -0.9300    -0.5140 h1         1 THI       0.079200
     22 H31         -2.3050     0.7860     1.7350 h1         1 THI       0.080200
     23 H32         -3.2470     1.3430     0.3290 h1         1 THI       0.080200
     24 H7           0.2710     1.4950    -3.9010 ha         1 THI       0.135000
     25 H8           2.2590     0.0900    -4.5150 ha         1 THI       0.120000
     26 H9           3.0960    -1.6550    -2.9380 ha         1 THI       0.117000
     27 H10          1.9590    -2.0150    -0.7350 ha         1 THI       0.128000
     28 H2           0.1630    -1.9590     2.5270 ha         1 THI       0.125500
     29 H3           1.4460    -1.2670     4.5160 ha         1 THI       0.115000
     30 H4           2.5040     0.9860     4.6140 ha         1 THI       0.114000
     31 H5           2.2690     2.5510     2.6890 ha         1 THI       0.115000
     32 H6           0.9830     1.8780     0.6850 ha         1 THI       0.125500
@<TRIPOS>BOND
     1     1     2 1   
     2     1    13 1   
     3     2     3 1   
     4     2    20 1   
     5     2    21 1   
     6     3     4 1   
     7     3    22 1   
     8     3    23 1   
     9     4     5 1   
    10     4    13 1   
    11     5     6 2   
    12     5     7 1   
    13     7     8 ar  
    14     7    12 ar  
    15     8     9 ar  
    16     8    24 1   
    17     9    10 ar  
    18     9    25 1   
    19    10    11 ar  
    20    10    26 1   
    21    11    12 ar  
    22    11    27 1   
    23    12    13 1   
    24    13    14 1   
    25    14    15 ar  
    26    14    19 ar  
    27    15    16 ar  
    28    15    28 1   
    29    16    17 ar  
    30    16    29 1   
    31    17    18 ar  
    32    17    30 1   
    33    18    19 ar  
    34    18    31 1   
    35    19    32 1   
@<TRIPOS>SUBSTRUCTURE
     1 THI         1 TEMP              0 ****  ****    0 ROOT
