@<TRIPOS>MOLECULE
THI
   32    35     1     0     0
SMALL
bcc


@<TRIPOS>ATOM
      1 S1          -1.5300    -1.7400     0.4050 ss         1 THI      -0.362200
      2 C2          -3.0310    -0.6970     0.4440 c5         1 THI      -0.004300
      3 C3          -2.5380     0.7500     0.5300 c5         1 THI       0.087000
      4 N4          -1.2770     0.7910    -0.1680 n          1 THI      -0.454800
      5 C5          -1.1360     1.1750    -1.4780 c          1 THI       0.722100
      6 O5          -1.8630     1.9420    -2.0740 o          1 THI      -0.586500
      7 C6           0.0520     0.4610    -1.9850 ca         1 THI      -0.163600
      8 C7           0.6710     0.5500    -3.2200 ca         1 THI      -0.055000
      9 C8           1.7610    -0.2770    -3.4560 ca         1 THI      -0.137000
     10 C9           2.2080    -1.1580    -2.4710 ca         1 THI      -0.103000
     11 C10          1.5790    -1.2390    -1.2330 ca         1 THI      -0.100000
     12 C11          0.4850    -0.4240    -1.0130 ca         1 THI      -0.054300
     13 C12         -0.3910    -0.2820     0.2030 c5         1 THI       0.310100
     14 C1           0.4100     0.0050     1.4560 ca         1 THI      -0.081300
     15 C13          0.9300    -1.0300     2.2270 ca         1 THI      -0.103500
     16 C14          1.7300    -0.7550     3.3270 ca         1 THI      -0.133000
     17 C4           2.0120     0.5590     3.6740 ca         1 THI      -0.119000
     18 C15          1.4960     1.5950     2.9080 ca         1 THI      -0.133000
     19 C16          0.7070     1.3200     1.8000 ca         1 THI      -0.103500
     20 H21         -3.6450    -0.9670     1.3010 h1         1 THI       0.079200
     21 H22         -3.6060    -0.8650    -0.4650 h1         1 THI       0.079200
     22 H31         -2.3920     1.0460     1.5700 h1         1 THI       0.080200
     23 H32         -3.2410     1.4430     0.0730 h1         1 THI       0.080200
     24 H7           0.3200     1.2420    -3.9750 ha         1 THI       0.153000
     25 H8           2.2710    -0.2380    -4.4090 ha         1 THI       0.138000
     26 H9           3.0620    -1.7900    -2.6740 ha         1 THI       0.135000
     27 H10          1.9430    -1.9220    -0.4780 ha         1 THI       0.146000
     28 H2           0.7040    -2.0600     1.9820 ha         1 THI       0.143500
     29 H3           2.1230    -1.5710     3.9190 ha         1 THI       0.133000
     30 H4           2.6260     0.7740     4.5400 ha         1 THI       0.132000
     31 H5           1.7060     2.6230     3.1720 ha         1 THI       0.133000
     32 H6           0.3140     2.1370     1.2090 ha         1 THI       0.143500
@<TRIPOS>BOND
     1     1     2 1   
     2     1    13 1   
     3     2     3 1   
     4     2    20 1   
     5     2    21 1   
     6     3     4 1   
     7     3    22 1   
     8     3    23 1   
     9     4     5 1   
    10     4    13 1   
    11     5     6 2   
    12     5     7 1   
    13     7     8 ar  
    14     7    12 ar  
    15     8     9 ar  
    16     8    24 1   
    17     9    10 ar  
    18     9    25 1   
    19    10    11 ar  
    20    10    26 1   
    21    11    12 ar  
    22    11    27 1   
    23    12    13 1   
    24    13    14 1   
    25    14    15 ar  
    26    14    19 ar  
    27    15    16 ar  
    28    15    28 1   
    29    16    17 ar  
    30    16    29 1   
    31    17    18 ar  
    32    17    30 1   
    33    18    19 ar  
    34    18    31 1   
    35    19    32 1   
@<TRIPOS>SUBSTRUCTURE
     1 THI         1 TEMP              0 ****  ****    0 ROOT
