@<TRIPOS>MOLECULE
THJ
    5     4     1     0     0
SMALL
abcg2


@<TRIPOS>ATOM
      1 S1          -0.3780    -0.0320    -0.0250 s6         1 THJ       1.140800
      2 O1          -0.7990    -1.4580     0.0010 o          1 THJ      -0.716867
      3 O2          -0.8320     0.6290    -1.2780 o          1 THJ      -0.716867
      4 O3          -0.8960     0.6900     1.1690 o          1 THJ      -0.716867
      5 S2           1.6540     0.0330     0.0230 s          1 THJ      -0.990200
@<TRIPOS>BOND
     1     1     2 1   
     2     1     3 1   
     3     1     4 1   
     4     1     5 1   
@<TRIPOS>SUBSTRUCTURE
     1 THJ         1 TEMP              0 ****  ****    0 ROOT
