@<TRIPOS>MOLECULE
THJ
    5     4     1     0     0
SMALL
No Charge or Current Charge


@<TRIPOS>ATOM
      1 S1          -0.4700    -0.0350    -0.0270 s6         1 THJ       1.140800
      2 O1          -0.7370    -1.4760     0.0020 o          1 THJ      -0.716867
      3 O2          -0.7720     0.6400    -1.2930 o          1 THJ      -0.716867
      4 O3          -0.8350     0.7020     1.1860 o          1 THJ      -0.716867
      5 S2           1.5630     0.0300     0.0220 s          1 THJ      -0.990200
@<TRIPOS>BOND
     1     1     2 1   
     2     1     3 1   
     3     1     4 1   
     4     1     5 1   
@<TRIPOS>SUBSTRUCTURE
     1 THJ         1 TEMP              0 ****  ****    0 ROOT
