@<TRIPOS>MOLECULE
THK
   56    59     1     0     0
SMALL
No Charge or Current Charge


@<TRIPOS>ATOM
      1 N1          -1.0320    -0.2210     1.1510 n3         1 THK      -0.723600
      2 C2          -2.2530    -0.5470     1.9390 c6         1 THK       0.169800
      3 C3          -1.9280    -0.7810     3.4340 c6         1 THK      -0.081400
      4 C4          -1.2060     0.4340     4.0750 c6         1 THK       0.230300
      5 O19         -2.1040     1.5510     4.0780 oh         1 THK      -0.657000
      6 C5           0.0220     0.8030     3.1910 c6         1 THK      -0.081400
      7 C6          -0.3610     0.9930     1.7030 c6         1 THK       0.169800
      8 C7          -1.3300    -0.1280    -0.3010 c3         1 THK       0.173800
      9 C8          -0.0890    -0.0270    -1.2160 c3         1 THK      -0.083400
     10 C9          -0.4530    -0.1170    -2.7240 c3         1 THK      -0.054400
     11 C10          0.7150    -0.0140    -3.7470 c5         1 THK       0.313300
     12 C12          0.1580    -0.1450    -5.1830 ca         1 THK      -0.086300
     13 C13         -0.1320     0.9930    -5.9760 ca         1 THK      -0.068000
     14 C14         -0.6500     0.8530    -7.2760 ca         1 THK      -0.153500
     15 C15         -0.8980    -0.4220    -7.7990 ca         1 THK       0.177000
     16 F18         -1.3980    -0.5540    -9.0460 f          1 THK      -0.178000
     17 C16         -0.6390    -1.5600    -7.0250 ca         1 THK      -0.153500
     18 C17         -0.1200    -1.4230    -5.7260 ca         1 THK      -0.068000
     19 C20         -0.7770     0.0910     5.5320 ca         1 THK      -0.108300
     20 C21         -1.3670     0.7220     6.6580 ca         1 THK      -0.093000
     21 C22         -0.9660     0.3870     7.9630 ca         1 THK      -0.105000
     22 C23          0.0210    -0.5860     8.1690 ca         1 THK       0.122000
     23 Cl6          0.5190    -1.0040     9.8040 cl         1 THK      -0.205000
     24 C24          0.6050    -1.2320     7.0710 ca         1 THK      -0.105000
     25 C25          0.2070    -0.9000     5.7650 ca         1 THK      -0.093000
     26 S51          1.6270     1.6000    -3.4730 ss         1 THK      -0.424500
     27 C52          3.3340     0.9200    -3.8430 c5         1 THK       0.057100
     28 C55          3.1910    -0.4880    -4.4690 c5         1 THK       0.057100
     29 S58          1.9620    -1.3420    -3.3860 ss         1 THK      -0.424500
     30 H21A        -2.7290    -1.4560     1.5420 h1         1 THK       0.037450
     31 H22A        -2.9920     0.2640     1.8510 h1         1 THK       0.037450
     32 H31         -1.3020    -1.6790     3.5180 hc         1 THK       0.055950
     33 H32         -2.8530    -0.9990     3.9830 hc         1 THK       0.055950
     34 HO9         -1.6100     2.2980     4.4750 ho         1 THK       0.443000
     35 H51          0.5000     1.7160     3.5700 hc         1 THK       0.055950
     36 H52          0.7860     0.0180     3.2430 hc         1 THK       0.055950
     37 H61          0.5620     1.2150     1.1490 h1         1 THK       0.037450
     38 H62         -1.0150     1.8720     1.6010 h1         1 THK       0.037450
     39 H71         -1.8890    -1.0240    -0.6050 h1         1 THK       0.030700
     40 H72         -1.9830     0.7350    -0.4950 h1         1 THK       0.030700
     41 H81          0.4260     0.9190    -1.0240 hc         1 THK       0.058700
     42 H82          0.6040    -0.8340    -0.9520 hc         1 THK       0.058700
     43 H91         -0.9820    -1.0630    -2.8900 hc         1 THK       0.055200
     44 H92         -1.1800     0.6740    -2.9460 hc         1 THK       0.055200
     45 H13          0.0310     1.9980    -5.5940 ha         1 THK       0.129500
     46 H14         -0.8650     1.7340    -7.8760 ha         1 THK       0.133000
     47 H16         -0.8430    -2.5470    -7.4310 ha         1 THK       0.133000
     48 H17          0.0590    -2.3210    -5.1390 ha         1 THK       0.129500
     49 H21         -2.1460     1.4720     6.5420 ha         1 THK       0.123000
     50 H22         -1.4240     0.8810     8.8160 ha         1 THK       0.129000
     51 H24          1.3630    -1.9940     7.2320 ha         1 THK       0.129000
     52 H25          0.6670    -1.4300     4.9340 ha         1 THK       0.123000
     53 H521         3.8790     1.6020    -4.5090 h1         1 THK       0.085700
     54 H522         3.8970     0.8610    -2.9010 h1         1 THK       0.085700
     55 H551         2.8220    -0.4380    -5.5020 h1         1 THK       0.085700
     56 H552         4.1460    -1.0300    -4.4730 h1         1 THK       0.085700
@<TRIPOS>BOND
     1     1     2 1   
     2     1     7 1   
     3     1     8 1   
     4     2     3 1   
     5     2    30 1   
     6     2    31 1   
     7     3     4 1   
     8     3    32 1   
     9     3    33 1   
    10     4     5 1   
    11     4     6 1   
    12     4    19 1   
    13     5    34 1   
    14     6     7 1   
    15     6    35 1   
    16     6    36 1   
    17     7    37 1   
    18     7    38 1   
    19     8     9 1   
    20     8    39 1   
    21     8    40 1   
    22     9    10 1   
    23     9    41 1   
    24     9    42 1   
    25    10    11 1   
    26    10    43 1   
    27    10    44 1   
    28    11    12 1   
    29    11    26 1   
    30    11    29 1   
    31    12    13 ar  
    32    12    18 ar  
    33    13    14 ar  
    34    13    45 1   
    35    14    15 ar  
    36    14    46 1   
    37    15    16 1   
    38    15    17 ar  
    39    17    18 ar  
    40    17    47 1   
    41    18    48 1   
    42    19    20 ar  
    43    19    25 ar  
    44    20    21 ar  
    45    20    49 1   
    46    21    22 ar  
    47    21    50 1   
    48    22    23 1   
    49    22    24 ar  
    50    24    25 ar  
    51    24    51 1   
    52    25    52 1   
    53    26    27 1   
    54    27    28 1   
    55    27    53 1   
    56    27    54 1   
    57    28    29 1   
    58    28    55 1   
    59    28    56 1   
@<TRIPOS>SUBSTRUCTURE
     1 THK         1 TEMP              0 ****  ****    0 ROOT
