@<TRIPOS>MOLECULE
THK
   56    59     1     0     0
SMALL
bcc


@<TRIPOS>ATOM
      1 N1          -0.9920    -0.3360     1.0250 n3         1 THK      -0.723600
      2 C2          -2.0240    -0.9190     1.8640 c6         1 THK       0.169800
      3 C3          -1.5800    -0.9730     3.3180 c6         1 THK      -0.081400
      4 C4          -1.1890     0.4090     3.8530 c6         1 THK       0.207100
      5 O19         -2.3790     1.1680     3.8820 oh         1 THK      -0.594800
      6 C5          -0.1870     1.0450     2.8810 c6         1 THK      -0.081400
      7 C6          -0.7000     1.0220     1.4500 c6         1 THK       0.169800
      8 C7          -1.3420    -0.4110    -0.3820 c3         1 THK       0.173800
      9 C8          -0.1430    -0.2300    -1.3060 c3         1 THK      -0.083400
     10 C9          -0.5680    -0.2830    -2.7650 c3         1 THK      -0.054400
     11 C10          0.5720    -0.3090    -3.7960 c5         1 THK       0.217500
     12 C12          0.0180    -0.0890    -5.1960 ca         1 THK      -0.086300
     13 C13         -0.6350     1.1160    -5.4690 ca         1 THK      -0.086000
     14 C14         -1.1530     1.3940    -6.7230 ca         1 THK      -0.171500
     15 C15         -1.0210     0.4440    -7.7180 ca         1 THK       0.141900
     16 F18         -1.5220     0.7030    -8.9370 f          1 THK      -0.142900
     17 C16         -0.3890    -0.7590    -7.4900 ca         1 THK      -0.171500
     18 C17          0.1290    -1.0160    -6.2250 ca         1 THK      -0.086000
     19 C20         -0.5980     0.2710     5.2500 ca         1 THK      -0.108300
     20 C21         -1.2860     0.7180     6.3730 ca         1 THK      -0.111000
     21 C22         -0.7570     0.5740     7.6500 ca         1 THK      -0.123000
     22 C23          0.4760    -0.0320     7.8070 ca         1 THK       0.030400
     23 CL6          1.1470    -0.2140     9.3970 cl         1 THK      -0.113400
     24 C24          1.1820    -0.4980     6.7090 ca         1 THK      -0.123000
     25 C25          0.6390    -0.3430     5.4440 ca         1 THK      -0.111000
     26 S51          1.8100     1.0350    -3.5150 ss         1 THK      -0.328700
     27 C52          3.0880     0.0290    -2.7260 c5         1 THK       0.009200
     28 C55          3.1480    -1.2730    -3.4950 c5         1 THK       0.009200
     29 S58          1.4560    -1.9100    -3.5940 ss         1 THK      -0.328700
     30 H21A        -2.2190    -1.9380     1.5200 h1         1 THK       0.037450
     31 H22A        -2.9770    -0.3710     1.7820 h1         1 THK       0.037450
     32 H31         -0.7220    -1.6440     3.4050 hc         1 THK       0.055950
     33 H32         -2.3770    -1.3930     3.9370 hc         1 THK       0.055950
     34 HO9         -2.1540     2.0960     4.0110 ho         1 THK       0.404000
     35 H51          0.0220     2.0750     3.1850 hc         1 THK       0.055950
     36 H52          0.7640     0.5120     2.9180 hc         1 THK       0.055950
     37 H61          0.0700     1.4480     0.8040 h1         1 THK       0.037450
     38 H62         -1.5840     1.6730     1.3510 h1         1 THK       0.037450
     39 H71         -1.7690    -1.4000    -0.5690 h1         1 THK       0.030700
     40 H72         -2.1290     0.3180    -0.6430 h1         1 THK       0.030700
     41 H81          0.3460     0.7280    -1.1190 hc         1 THK       0.058700
     42 H82          0.5900    -1.0120    -1.0930 hc         1 THK       0.058700
     43 H91         -1.1900    -1.1680    -2.9440 hc         1 THK       0.055200
     44 H92         -1.2140     0.5740    -2.9720 hc         1 THK       0.055200
     45 H13         -0.7410     1.8700    -4.6980 ha         1 THK       0.147500
     46 H14         -1.6500     2.3340    -6.9200 ha         1 THK       0.151000
     47 H16         -0.2950    -1.4910    -8.2810 ha         1 THK       0.151000
     48 H17          0.6310    -1.9590    -6.0530 ha         1 THK       0.147500
     49 H21         -2.2550     1.1860     6.2700 ha         1 THK       0.141000
     50 H22         -1.3090     0.9310     8.5090 ha         1 THK       0.147000
     51 H24          2.1430    -0.9780     6.8340 ha         1 THK       0.147000
     52 H25          1.2040    -0.7160     4.5990 ha         1 THK       0.141000
     53 H521         4.0270     0.5800    -2.8010 h1         1 THK       0.085700
     54 H522         2.8650    -0.1390    -1.6730 h1         1 THK       0.085700
     55 H551         3.5660    -1.1250    -4.4900 h1         1 THK       0.085700
     56 H552         3.7440    -2.0210    -2.9700 h1         1 THK       0.085700
@<TRIPOS>BOND
     1     1     2 1   
     2     1     7 1   
     3     1     8 1   
     4     2     3 1   
     5     2    30 1   
     6     2    31 1   
     7     3     4 1   
     8     3    32 1   
     9     3    33 1   
    10     4     5 1   
    11     4     6 1   
    12     4    19 1   
    13     5    34 1   
    14     6     7 1   
    15     6    35 1   
    16     6    36 1   
    17     7    37 1   
    18     7    38 1   
    19     8     9 1   
    20     8    39 1   
    21     8    40 1   
    22     9    10 1   
    23     9    41 1   
    24     9    42 1   
    25    10    11 1   
    26    10    43 1   
    27    10    44 1   
    28    11    12 1   
    29    11    26 1   
    30    11    29 1   
    31    12    13 ar  
    32    12    18 ar  
    33    13    14 ar  
    34    13    45 1   
    35    14    15 ar  
    36    14    46 1   
    37    15    16 1   
    38    15    17 ar  
    39    17    18 ar  
    40    17    47 1   
    41    18    48 1   
    42    19    20 ar  
    43    19    25 ar  
    44    20    21 ar  
    45    20    49 1   
    46    21    22 ar  
    47    21    50 1   
    48    22    23 1   
    49    22    24 ar  
    50    24    25 ar  
    51    24    51 1   
    52    25    52 1   
    53    26    27 1   
    54    27    28 1   
    55    27    53 1   
    56    27    54 1   
    57    28    29 1   
    58    28    55 1   
    59    28    56 1   
@<TRIPOS>SUBSTRUCTURE
     1 THK         1 TEMP              0 ****  ****    0 ROOT
