@<TRIPOS>MOLECULE
THN
   35    36     1     0     0
SMALL
bcc


@<TRIPOS>ATOM
      1 S1          -0.0910     1.5950    -2.0740 ss         1 THN      -0.369300
      2 C2          -1.0230     1.4740    -3.6350 c6         1 THN       0.042900
      3 C3          -1.7160     0.1570    -3.7560 c2         1 THN      -0.062400
      4 C5          -3.0200     0.0730    -4.0000 c2         1 THN      -0.282000
      5 C4          -0.8440    -1.0580    -3.6040 c6         1 THN      -0.004300
      6 C9           0.1760    -1.0930    -4.7920 c          1 THN       0.938600
      7 O4A         -0.2120    -1.6910    -5.8100 o          1 THN      -0.809800
      8 O4B          1.2440    -0.4870    -4.6170 o          1 THN      -0.809800
      9 N5          -0.1600    -1.1290    -2.3370 n2         1 THN      -0.564900
     10 C6           0.1920    -0.1110    -1.6870 c2         1 THN       0.518200
     11 C7           0.9230    -0.2680    -0.3750 c3         1 THN      -0.088600
     12 C8           2.3220     0.4160    -0.4780 c          1 THN       0.943600
     13 O9A          3.1530    -0.2170    -1.1510 o          1 THN      -0.814800
     14 O9B          2.4550     1.5140     0.0810 o          1 THN      -0.814800
     15 N10          0.1120     0.2540     0.7000 ns         1 THN      -0.516900
     16 C11          0.4930     0.1170     1.9780 c          1 THN       0.669100
     17 O12          1.4060    -0.6120     2.3300 o          1 THN      -0.609100
     18 C13         -0.3030     0.9550     2.9690 c3         1 THN      -0.115100
     19 C14         -0.3320     0.3650     4.3350 cc         1 THN       0.012600
     20 C15          0.3440     0.7770     5.4440 cd         1 THN      -0.170000
     21 C16          0.1020    -0.0410     6.5830 cd         1 THN      -0.150000
     22 C17         -0.7540    -1.0630     6.3190 cc         1 THN      -0.149100
     23 S19         -1.2720    -1.0360     4.6840 ss         1 THN      -0.097800
     24 H21         -0.3130     1.6190    -4.4490 h1         1 THN       0.065700
     25 H22         -1.7310     2.3010    -3.6380 h1         1 THN       0.065700
     26 H3'1        -3.6360     0.9560    -4.1180 ha         1 THN       0.088500
     27 H3'2        -3.5140    -0.8850    -4.1070 ha         1 THN       0.088500
     28 H4          -1.4740    -1.9460    -3.6770 h1         1 THN       0.059700
     29 H7           1.0630    -1.3410    -0.2340 h1         1 THN       0.083700
     30 H10         -0.6080     0.9280     0.4870 hn         1 THN       0.299500
     31 H131         0.1830     1.9330     3.0240 hc         1 THN       0.063200
     32 H132        -1.3130     1.1400     2.5920 hc         1 THN       0.063200
     33 H15          0.9980     1.6380     5.4440 ha         1 THN       0.150000
     34 H16          0.5480     0.1280     7.5530 ha         1 THN       0.130000
     35 H17         -1.1120    -1.8260     6.9930 h4         1 THN       0.147000
@<TRIPOS>BOND
     1     1     2 1   
     2     1    10 1   
     3     2     3 1   
     4     2    24 1   
     5     2    25 1   
     6     3     4 2   
     7     3     5 1   
     8     4    26 1   
     9     4    27 1   
    10     5     6 1   
    11     5     9 1   
    12     5    28 1   
    13     6     7 1   
    14     6     8 1   
    15     9    10 2   
    16    10    11 1   
    17    11    12 1   
    18    11    15 1   
    19    11    29 1   
    20    12    13 1   
    21    12    14 1   
    22    15    16 1   
    23    15    30 1   
    24    16    17 2   
    25    16    18 1   
    26    18    19 1   
    27    18    31 1   
    28    18    32 1   
    29    19    20 2   
    30    19    23 1   
    31    20    21 1   
    32    20    33 1   
    33    21    22 2   
    34    21    34 1   
    35    22    23 1   
    36    22    35 1   
@<TRIPOS>SUBSTRUCTURE
     1 THN         1 TEMP              0 ****  ****    0 ROOT
