@<TRIPOS>MOLECULE
THN
   35    36     1     0     0
SMALL
No Charge or Current Charge


@<TRIPOS>ATOM
      1 S1          -0.4110     1.5230    -1.2010 ss         1 THN      -0.417200
      2 C2          -1.8560     0.9480    -2.1650 c6         1 THN       0.090800
      3 C3          -1.9490    -0.5540    -2.2590 c2         1 THN      -0.062400
      4 C5          -3.0160    -1.2490    -1.8330 c2         1 THN      -0.382000
      5 C4          -0.7080    -1.2060    -2.8580 c6         1 THN      -0.004300
      6 C9          -0.6460    -1.0110    -4.4180 c          1 THN       0.728000
      7 O4A         -1.0470    -1.9270    -5.1270 o          1 THN      -0.704500
      8 O4B         -0.1930     0.0360    -4.8670 o          1 THN      -0.704500
      9 N5           0.5560    -0.9030    -2.1120 n2         1 THN      -0.564900
     10 C6           0.7810     0.1900    -1.4500 c2         1 THN       0.518200
     11 C7           2.0990     0.3640    -0.7280 c3         1 THN      -0.088600
     12 C8           2.9170     1.4570    -1.4390 c          1 THN       0.733000
     13 O9A          3.5290     1.1450    -2.4500 o          1 THN      -0.709500
     14 O9B          2.9780     2.5720    -0.9370 o          1 THN      -0.709500
     15 N10          1.9260     0.6500     0.7290 ns         1 THN      -0.449900
     16 C11          1.5610    -0.2800     1.6780 c          1 THN       0.602100
     17 O12          1.4120    -1.4650     1.4090 o          1 THN      -0.609100
     18 C13          1.3490     0.2790     3.0920 c3         1 THN      -0.115100
     19 C14         -0.1020     0.3910     3.4980 cc         1 THN      -0.132300
     20 C15         -0.6360     0.2060     4.7480 cd         1 THN      -0.152000
     21 C16         -2.0430     0.3910     4.8020 cd         1 THN      -0.132000
     22 C17         -2.5980     0.7230     3.5930 cc         1 THN      -0.276000
     23 S19         -1.3650     0.8170     2.3390 ss         1 THN       0.192000
     24 H21         -1.7740     1.3740    -3.1750 h1         1 THN       0.065700
     25 H22         -2.7610     1.3690    -1.7060 h1         1 THN       0.065700
     26 H3'1        -3.8850    -0.7550    -1.3980 ha         1 THN       0.138500
     27 H3'2        -3.0540    -2.3370    -1.9030 ha         1 THN       0.138500
     28 H4          -0.8470    -2.2890    -2.7350 h1         1 THN       0.059700
     29 H7           2.6790    -0.5620    -0.8200 h1         1 THN       0.083700
     30 H10          2.0290     1.6100     1.0390 hn         1 THN       0.299500
     31 H131         1.8580    -0.3890     3.7960 hc         1 THN       0.063200
     32 H132         1.7980     1.2770     3.1590 hc         1 THN       0.063200
     33 H15         -0.0390    -0.0590     5.6160 ha         1 THN       0.132000
     34 H16         -2.6240     0.2810     5.7140 ha         1 THN       0.112000
     35 H17         -3.6320     0.9200     3.3450 h4         1 THN       0.129000
@<TRIPOS>BOND
     1     1     2 1   
     2     1    10 1   
     3     2     3 1   
     4     2    24 1   
     5     2    25 1   
     6     3     4 2   
     7     3     5 1   
     8     4    26 1   
     9     4    27 1   
    10     5     6 1   
    11     5     9 1   
    12     5    28 1   
    13     6     7 1   
    14     6     8 1   
    15     9    10 2   
    16    10    11 1   
    17    11    12 1   
    18    11    15 1   
    19    11    29 1   
    20    12    13 1   
    21    12    14 1   
    22    15    16 1   
    23    15    30 1   
    24    16    17 2   
    25    16    18 1   
    26    18    19 1   
    27    18    31 1   
    28    18    32 1   
    29    19    20 2   
    30    19    23 1   
    31    20    21 1   
    32    20    33 1   
    33    21    22 2   
    34    21    34 1   
    35    22    23 1   
    36    22    35 1   
@<TRIPOS>SUBSTRUCTURE
     1 THN         1 TEMP              0 ****  ****    0 ROOT
