@<TRIPOS>MOLECULE
THO
   18    17     1     0     0
SMALL
No Charge or Current Charge


@<TRIPOS>ATOM
      1 N           -5.0390    -1.5420     0.4450 n8         1 THO      -0.929800
      2 CA          -6.3780    -1.7240     1.0970 c3         1 THO       0.082500
      3 CB          -6.7180    -3.2260     1.3680 c3         1 THO       0.121100
      4 CG2         -8.1460    -3.4430     1.9150 c3         1 THO      -0.086100
      5 OG1         -6.5810    -3.9860     0.1600 oh         1 THO      -0.591800
      6 C           -6.4590    -0.8450     2.3770 c3         1 THO       0.149400
      7 O           -5.7580     0.3650     2.1010 oh         1 THO      -0.599800
      8 H           -4.3450    -2.1440     0.9050 hn         1 THO       0.355300
      9 H2          -5.0790    -1.8900    -0.5200 hn         1 THO       0.355300
     10 HA          -7.1340    -1.3300     0.4010 h1         1 THO       0.078700
     11 HB          -6.0120    -3.6090     2.1170 h1         1 THO       0.027700
     12 HG21        -8.3490    -4.5120     2.0470 hc         1 THO       0.047033
     13 HG22        -8.2720    -2.9580     2.8900 hc         1 THO       0.047033
     14 HG23        -8.8950    -3.0340     1.2260 hc         1 THO       0.047033
     15 HG1         -5.6290    -3.9870    -0.0710 ho         1 THO       0.394000
     16 HC1         -5.9810    -1.3720     3.2140 h1         1 THO       0.035700
     17 HC2         -7.5060    -0.6480     2.6430 h1         1 THO       0.035700
     18 HO          -5.1810     0.0840     1.3460 ho         1 THO       0.430000
@<TRIPOS>BOND
     1     1     2 1   
     2     1     8 1   
     3     1     9 1   
     4     2     3 1   
     5     2     6 1   
     6     2    10 1   
     7     3     4 1   
     8     3     5 1   
     9     3    11 1   
    10     4    12 1   
    11     4    13 1   
    12     4    14 1   
    13     5    15 1   
    14     6     7 1   
    15     6    16 1   
    16     6    17 1   
    17     7    18 1   
@<TRIPOS>SUBSTRUCTURE
     1 THO         1 TEMP              0 ****  ****    0 ROOT
