@<TRIPOS>MOLECULE
THO
   18    17     1     0     0
SMALL
bcc


@<TRIPOS>ATOM
      1 N           -5.0290    -1.5880     0.5070 n8         1 THO      -0.929800
      2 CA          -6.3630    -1.7750     1.0680 c3         1 THO       0.082500
      3 CB          -6.7190    -3.2370     1.3630 c3         1 THO       0.121100
      4 CG2         -8.1200    -3.3970     1.9240 c3         1 THO      -0.086100
      5 OG1         -6.6480    -4.0250     0.1900 oh         1 THO      -0.591800
      6 C           -6.4470    -0.8940     2.3190 c3         1 THO       0.149400
      7 O           -5.9330     0.3860     2.0560 oh         1 THO      -0.599800
      8 H           -4.3400    -2.1520     0.9920 hn         1 THO       0.355300
      9 H2          -4.9900    -1.8260    -0.4740 hn         1 THO       0.355300
     10 HA          -7.0760    -1.3930     0.3290 h1         1 THO       0.078700
     11 HB          -6.0000    -3.6090     2.1120 h1         1 THO       0.027700
     12 HG21        -8.3730    -4.4530     2.0270 hc         1 THO       0.047033
     13 HG22        -8.2050    -2.9470     2.9130 hc         1 THO       0.047033
     14 HG23        -8.8640    -2.9300     1.2750 hc         1 THO       0.047033
     15 HG1         -5.7420    -4.0060    -0.1320 ho         1 THO       0.394000
     16 HC1         -5.9010    -1.3860     3.1410 h1         1 THO       0.035700
     17 HC2         -7.4850    -0.7890     2.6440 h1         1 THO       0.035700
     18 HO          -5.2280     0.2210     1.4070 ho         1 THO       0.430000
@<TRIPOS>BOND
     1     1     2 1   
     2     1     8 1   
     3     1     9 1   
     4     2     3 1   
     5     2     6 1   
     6     2    10 1   
     7     3     4 1   
     8     3     5 1   
     9     3    11 1   
    10     4    12 1   
    11     4    13 1   
    12     4    14 1   
    13     5    15 1   
    14     6     7 1   
    15     6    16 1   
    16     6    17 1   
    17     7    18 1   
@<TRIPOS>SUBSTRUCTURE
     1 THO         1 TEMP              0 ****  ****    0 ROOT
