@<TRIPOS>MOLECULE
THS
   36    37     1     0     0
SMALL
No Charge or Current Charge


@<TRIPOS>ATOM
      1 P            0.6830    -0.6190    -3.0920 p5         1 THS       0.779200
      2 O1P          0.9540    -1.8290    -2.2700 o          1 THS      -0.391000
      3 S2P          1.1130    -0.7940    -5.1390 sh         1 THS      -0.421200
      4 S3P          1.6780     1.1530    -2.5530 sh         1 THS      -0.421200
      5 O5          -0.8570    -0.1190    -3.1580 os         1 THS      -0.519400
      6 C5          -1.5840     0.4390    -2.0350 c3         1 THS       0.186600
      7 C4          -1.5500    -0.5060    -0.8000 c5         1 THS       0.173300
      8 O4          -0.4070    -0.2230     0.0300 os         1 THS      -0.432000
      9 C3          -2.7200    -0.2970     0.2070 c5         1 THS       0.142300
     10 O3          -3.9650    -0.8390    -0.2450 oh         1 THS      -0.712000
     11 C2          -2.1700    -1.0660     1.4410 c5         1 THS      -0.151400
     12 C1          -0.6270    -0.9030     1.2760 c5         1 THS       0.353700
     13 N1          -0.1090    -0.1590     2.4560 n          1 THS      -0.323000
     14 C9          -0.2110     1.2500     2.5270 c          1 THS       0.626000
     15 O2          -0.7920     1.9480     1.7130 o          1 THS      -0.572000
     16 N3           0.3640     1.8290     3.6120 ns         1 THS      -0.466500
     17 C8           1.0140     1.2360     4.6460 c          1 THS       0.587200
     18 O6           1.4810     1.8990     5.5580 o          1 THS      -0.521000
     19 C7           1.0840    -0.2390     4.5500 cc         1 THS      -0.253400
     20 C5M          1.7910    -0.9460     5.6830 c3         1 THS      -0.021900
     21 C6           0.5250    -0.8820     3.4670 cd         1 THS      -0.008400
     22 HSP2         0.7810    -2.1060    -5.0750 hs         1 THS       0.312300
     23 HSP3         1.9430     1.3740    -3.8620 hs         1 THS       0.312300
     24 H5'1        -2.6330     0.5880    -2.3230 h1         1 THS       0.074200
     25 H5'2        -1.1840     1.4200    -1.7500 h1         1 THS       0.074200
     26 H4          -1.5160    -1.5520    -1.1370 h1         1 THS       0.080700
     27 H3          -2.8240     0.7750     0.4350 h1         1 THS       0.074700
     28 HO3         -4.6320    -0.6710     0.4630 ho         1 THS       0.517000
     29 H2'1        -2.4390    -2.1280     1.4110 hc         1 THS       0.076200
     30 H2'2        -2.5550    -0.6630     2.3850 hc         1 THS       0.076200
     31 H1          -0.1340    -1.8840     1.2550 h2         1 THS       0.070700
     32 HN3          0.2910     2.8320     3.6580 hn         1 THS       0.344500
     33 HM51         2.8350    -0.6170     5.7630 hc         1 THS       0.049033
     34 HM52         1.2980    -0.7440     6.6420 hc         1 THS       0.049033
     35 HM53         1.7960    -2.0320     5.5350 hc         1 THS       0.049033
     36 H6           0.5380    -1.9600     3.3230 h4         1 THS       0.205000
@<TRIPOS>BOND
     1     1     2 2   
     2     1     3 1   
     3     1     4 1   
     4     1     5 1   
     5     3    22 1   
     6     4    23 1   
     7     5     6 1   
     8     6     7 1   
     9     6    24 1   
    10     6    25 1   
    11     7     8 1   
    12     7     9 1   
    13     7    26 1   
    14     8    12 1   
    15     9    10 1   
    16     9    11 1   
    17     9    27 1   
    18    10    28 1   
    19    11    12 1   
    20    11    29 1   
    21    11    30 1   
    22    12    13 1   
    23    12    31 1   
    24    13    14 1   
    25    13    21 1   
    26    14    15 2   
    27    14    16 1   
    28    16    17 1   
    29    16    32 1   
    30    17    18 2   
    31    17    19 1   
    32    19    20 1   
    33    19    21 2   
    34    20    33 1   
    35    20    34 1   
    36    20    35 1   
    37    21    36 1   
@<TRIPOS>SUBSTRUCTURE
     1 THS         1 TEMP              0 ****  ****    0 ROOT
