@<TRIPOS>MOLECULE
THS
   36    37     1     0     0
SMALL
abcg2


@<TRIPOS>ATOM
      1 P            1.0130     0.3590    -3.4430 p5         1 THS       0.779200
      2 O1P          1.7140     1.6340    -3.1830 o          1 THS      -0.391000
      3 S2P          2.1880    -1.2960    -3.8960 sh         1 THS      -0.421200
      4 S3P         -0.3650     0.6890    -4.9740 sh         1 THS      -0.421200
      5 O5           0.2290    -0.3300    -2.2350 os         1 THS      -0.519400
      6 C5          -0.7910     0.3900    -1.5230 c3         1 THS       0.186600
      7 C4          -1.4780    -0.5640    -0.5820 c5         1 THS       0.173300
      8 O4          -0.5690    -0.9920     0.4140 os         1 THS      -0.432000
      9 C3          -2.6630     0.0890     0.1350 c5         1 THS       0.142300
     10 O3          -3.8300    -0.1690    -0.6020 oh         1 THS      -0.712000
     11 C2          -2.6180    -0.5670     1.5160 c5         1 THS      -0.151400
     12 C1          -1.1880    -1.0920     1.6660 c5         1 THS       0.353700
     13 N1          -0.3630    -0.4240     2.6730 n          1 THS      -0.323000
     14 C9          -0.1360     0.9290     2.5870 c          1 THS       0.626000
     15 O2          -0.6090     1.6350     1.7220 o          1 THS      -0.572000
     16 N3           0.6740     1.4330     3.5710 ns         1 THS      -0.466500
     17 C8           1.2740     0.7530     4.6150 c          1 THS       0.587200
     18 O6           1.9670     1.3450     5.4230 o          1 THS      -0.521000
     19 C7           1.0000    -0.6700     4.6350 cc         1 THS      -0.253400
     20 C5M          1.6060    -1.5080     5.7120 c3         1 THS      -0.021900
     21 C6           0.2110    -1.1710     3.6700 cd         1 THS      -0.008400
     22 HSP2         2.8780    -0.6720    -4.8600 hs         1 THS       0.312300
     23 HSP3        -0.8500    -0.5580    -5.0330 hs         1 THS       0.312300
     24 H5'1        -1.5260     0.7920    -2.2260 h1         1 THS       0.074200
     25 H5'2        -0.3450     1.2170    -0.9680 h1         1 THS       0.074200
     26 H4          -1.8470    -1.4330    -1.1450 h1         1 THS       0.080700
     27 H3          -2.5000     1.1660     0.2310 h1         1 THS       0.074700
     28 HO3         -4.5220     0.4190    -0.2870 ho         1 THS       0.517000
     29 H2'1        -3.2990    -1.4190     1.5250 hc         1 THS       0.076200
     30 H2'2        -2.9130     0.1000     2.3240 hc         1 THS       0.076200
     31 H1          -1.2080    -2.1360     1.9850 h2         1 THS       0.070700
     32 HN3          0.8480     2.4290     3.5160 hn         1 THS       0.344500
     33 HM51         2.6950    -1.4410     5.7020 hc         1 THS       0.049033
     34 HM52         1.2720    -1.1880     6.7000 hc         1 THS       0.049033
     35 HM53         1.3340    -2.5550     5.5910 hc         1 THS       0.049033
     36 H6          -0.0210    -2.2270     3.6380 h4         1 THS       0.205000
@<TRIPOS>BOND
     1     1     2 2   
     2     1     3 1   
     3     1     4 1   
     4     1     5 1   
     5     3    22 1   
     6     4    23 1   
     7     5     6 1   
     8     6     7 1   
     9     6    24 1   
    10     6    25 1   
    11     7     8 1   
    12     7     9 1   
    13     7    26 1   
    14     8    12 1   
    15     9    10 1   
    16     9    11 1   
    17     9    27 1   
    18    10    28 1   
    19    11    12 1   
    20    11    29 1   
    21    11    30 1   
    22    12    13 1   
    23    12    31 1   
    24    13    14 1   
    25    13    21 1   
    26    14    15 2   
    27    14    16 1   
    28    16    17 1   
    29    16    32 1   
    30    17    18 2   
    31    17    19 1   
    32    19    20 1   
    33    19    21 2   
    34    20    33 1   
    35    20    34 1   
    36    20    35 1   
    37    21    36 1   
@<TRIPOS>SUBSTRUCTURE
     1 THS         1 TEMP              0 ****  ****    0 ROOT
