@<TRIPOS>MOLECULE
THT
   63    62     1     0     0
SMALL
bcc


@<TRIPOS>ATOM
      1 C1           1.2090     0.0180   -12.0850 c3         1 THT      -0.180100
      2 C2           0.0920     0.0220   -11.0690 c          1 THT       0.666100
      3 O2          -1.0910     0.0640   -11.3770 o          1 THT      -0.599100
      4 N3           0.4950    -0.0140    -9.7860 ns         1 THT      -0.585900
      5 C4          -0.4400    -0.0130    -8.6830 c3         1 THT       0.117000
      6 C5           0.3310    -0.0370    -7.3720 c3         1 THT      -0.002300
      7 S6          -0.8650    -0.0390    -6.0110 ss         1 THT      -0.331700
      8 C7           0.2170    -0.0410    -4.6020 c          1 THT       0.617700
      9 O7           1.4150    -0.0440    -4.7120 o          1 THT      -0.509100
     10 C8          -0.5340    -0.0410    -3.2970 c3         1 THT      -0.168400
     11 C9           0.3590    -0.0390    -2.0650 c3         1 THT      -0.066400
     12 C10         -0.4620    -0.0370    -0.7810 c3         1 THT      -0.076400
     13 C11          0.4020    -0.0270     0.4740 c3         1 THT      -0.074400
     14 C12         -0.4160    -0.0250     1.7600 c3         1 THT      -0.074400
     15 C13          0.4420    -0.0160     3.0200 c3         1 THT      -0.074400
     16 C14         -0.3790    -0.0140     4.3030 c3         1 THT      -0.074400
     17 C15          0.4740    -0.0040     5.5660 c3         1 THT      -0.074400
     18 C16         -0.3510    -0.0030     6.8470 c3         1 THT      -0.074400
     19 C17          0.4980     0.0070     8.1130 c3         1 THT      -0.074400
     20 C18         -0.3310     0.0090     9.3910 c3         1 THT      -0.074400
     21 C19          0.5130     0.0180    10.6590 c3         1 THT      -0.074400
     22 C20         -0.3210     0.0180    11.9340 c3         1 THT      -0.075400
     23 C21          0.5170     0.0300    13.2070 c3         1 THT      -0.074400
     24 C22         -0.3330     0.0230    14.4700 c3         1 THT      -0.089100
     25 HC11         1.8630    -0.8430   -11.9450 hc         1 THT       0.060367
     26 HC12         0.8040    -0.0110   -13.0930 hc         1 THT       0.060367
     27 HC13         1.8240     0.9130   -11.9820 hc         1 THT       0.060367
     28 HN31         1.4820    -0.0590    -9.5870 hn         1 THT       0.314500
     29 HC41        -1.0990    -0.8830    -8.7450 h1         1 THT       0.064700
     30 HC42        -1.0730     0.8760    -8.7270 h1         1 THT       0.064700
     31 HC51         0.9720     0.8410    -7.2850 h1         1 THT       0.075700
     32 HC52         0.9510    -0.9320    -7.3050 h1         1 THT       0.075700
     33 HC81        -1.1960    -0.9130    -3.2890 hc         1 THT       0.075700
     34 HC82        -1.1980     0.8300    -3.2910 hc         1 THT       0.075700
     35 HC91         1.0130     0.8370    -2.0810 hc         1 THT       0.052700
     36 HC92         1.0120    -0.9160    -2.0780 hc         1 THT       0.052700
     37 H101        -1.1150    -0.9170    -0.7640 hc         1 THT       0.038700
     38 H102        -1.1250     0.8340    -0.7720 hc         1 THT       0.038700
     39 H111         1.0560     0.8520     0.4580 hc         1 THT       0.039700
     40 H112         1.0650    -0.8990     0.4660 hc         1 THT       0.039700
     41 H121        -1.0710    -0.9030     1.7740 hc         1 THT       0.037700
     42 H122        -1.0790     0.8470     1.7670 hc         1 THT       0.037700
     43 H131         1.0960     0.8630     3.0060 hc         1 THT       0.037700
     44 H132         1.1050    -0.8880     3.0140 hc         1 THT       0.037700
     45 H141        -1.0340    -0.8930     4.3160 hc         1 THT       0.037700
     46 H142        -1.0430     0.8580     4.3080 hc         1 THT       0.037700
     47 H151         1.1290     0.8750     5.5550 hc         1 THT       0.037700
     48 H152         1.1380    -0.8760     5.5620 hc         1 THT       0.037700
     49 H161        -1.0060    -0.8810     6.8580 hc         1 THT       0.036700
     50 H162        -1.0150     0.8690     6.8500 hc         1 THT       0.036700
     51 H171         1.1540     0.8850     8.1030 hc         1 THT       0.037200
     52 H172         1.1610    -0.8660     8.1120 hc         1 THT       0.037200
     53 H181        -0.9870    -0.8680     9.3990 hc         1 THT       0.036700
     54 H182        -0.9940     0.8820     9.3910 hc         1 THT       0.036700
     55 H191         1.1690     0.8960    10.6530 hc         1 THT       0.036700
     56 H192         1.1770    -0.8550    10.6600 hc         1 THT       0.036700
     57 H201        -0.9750    -0.8620    11.9400 hc         1 THT       0.036700
     58 H202        -0.9870     0.8880    11.9320 hc         1 THT       0.036700
     59 H211         1.1660     0.9110    13.2050 hc         1 THT       0.036700
     60 H212         1.1850    -0.8380    13.2090 hc         1 THT       0.036700
     61 H221         0.2810     0.0300    15.3720 hc         1 THT       0.031367
     62 H222        -0.9860     0.8970    14.5080 hc         1 THT       0.031367
     63 H223        -0.9690    -0.8640    14.5110 hc         1 THT       0.031367
@<TRIPOS>BOND
     1     1     2 1   
     2     1    25 1   
     3     1    26 1   
     4     1    27 1   
     5     2     3 2   
     6     2     4 1   
     7     4     5 1   
     8     4    28 1   
     9     5     6 1   
    10     5    29 1   
    11     5    30 1   
    12     6     7 1   
    13     6    31 1   
    14     6    32 1   
    15     7     8 1   
    16     8     9 2   
    17     8    10 1   
    18    10    11 1   
    19    10    33 1   
    20    10    34 1   
    21    11    12 1   
    22    11    35 1   
    23    11    36 1   
    24    12    13 1   
    25    12    37 1   
    26    12    38 1   
    27    13    14 1   
    28    13    39 1   
    29    13    40 1   
    30    14    15 1   
    31    14    41 1   
    32    14    42 1   
    33    15    16 1   
    34    15    43 1   
    35    15    44 1   
    36    16    17 1   
    37    16    45 1   
    38    16    46 1   
    39    17    18 1   
    40    17    47 1   
    41    17    48 1   
    42    18    19 1   
    43    18    49 1   
    44    18    50 1   
    45    19    20 1   
    46    19    51 1   
    47    19    52 1   
    48    20    21 1   
    49    20    53 1   
    50    20    54 1   
    51    21    22 1   
    52    21    55 1   
    53    21    56 1   
    54    22    23 1   
    55    22    57 1   
    56    22    58 1   
    57    23    24 1   
    58    23    59 1   
    59    23    60 1   
    60    24    61 1   
    61    24    62 1   
    62    24    63 1   
@<TRIPOS>SUBSTRUCTURE
     1 THT         1 TEMP              0 ****  ****    0 ROOT
