@<TRIPOS>MOLECULE
THT
   63    62     1     0     0
SMALL
No Charge or Current Charge


@<TRIPOS>ATOM
      1 C1           1.9530     0.4400   -11.3960 c3         1 THT      -0.180100
      2 C2           0.9020     0.5170   -10.2970 c          1 THT       0.599100
      3 O2          -0.1840    -0.0360   -10.3840 o          1 THT      -0.599100
      4 N3           1.2690     1.2590    -9.1980 ns         1 THT      -0.518900
      5 C4           0.4310     1.4650    -8.0100 c3         1 THT       0.117000
      6 C5           0.3210     0.2020    -7.1340 c3         1 THT       0.045600
      7 S6          -0.7070     0.5360    -5.6300 ss         1 THT      -0.379600
      8 C7          -0.6470    -1.0960    -4.8290 c          1 THT       0.617700
      9 O7          -0.0310    -2.0470    -5.2900 o          1 THT      -0.509100
     10 C8          -1.3840    -1.1570    -3.4900 c3         1 THT      -0.168400
     11 C9          -0.4320    -0.8620    -2.3070 c3         1 THT      -0.066400
     12 C10         -1.1430    -0.9030    -0.9360 c3         1 THT      -0.076400
     13 C11         -0.1940    -0.6090     0.2460 c3         1 THT      -0.074400
     14 C12         -0.9050    -0.6500     1.6160 c3         1 THT      -0.074400
     15 C13          0.0440    -0.3560     2.7990 c3         1 THT      -0.074400
     16 C14         -0.6670    -0.3960     4.1690 c3         1 THT      -0.074400
     17 C15          0.2820    -0.1030     5.3510 c3         1 THT      -0.074400
     18 C16         -0.4290    -0.1440     6.7220 c3         1 THT      -0.074400
     19 C17          0.5200     0.1490     7.9040 c3         1 THT      -0.074400
     20 C18         -0.1910     0.1080     9.2740 c3         1 THT      -0.074400
     21 C19          0.7580     0.4010    10.4570 c3         1 THT      -0.074400
     22 C20          0.0470     0.3600    11.8270 c3         1 THT      -0.075400
     23 C21          0.9950     0.6530    13.0100 c3         1 THT      -0.074400
     24 C22          0.2860     0.6120    14.3770 c3         1 THT      -0.089100
     25 HC11         2.8870     0.0580   -10.9700 hc         1 THT       0.060367
     26 HC12         1.6240    -0.1570   -12.2540 hc         1 THT       0.060367
     27 HC13         2.2320     1.4570   -11.6940 hc         1 THT       0.060367
     28 HN31         2.1890     1.6840    -9.2220 hn         1 THT       0.314500
     29 HC41        -0.5720     1.7770    -8.3290 h1         1 THT       0.064700
     30 HC42         0.8630     2.2810    -7.4140 h1         1 THT       0.064700
     31 HC51         1.3240    -0.1170    -6.8220 h1         1 THT       0.075700
     32 HC52        -0.1380    -0.6110    -7.7100 h1         1 THT       0.075700
     33 HC81        -1.8170    -2.1560    -3.3630 hc         1 THT       0.075700
     34 HC82        -2.1700    -0.3920    -3.4810 hc         1 THT       0.075700
     35 HC91         0.0240     0.1270    -2.4470 hc         1 THT       0.052700
     36 HC92         0.3860    -1.5940    -2.3100 hc         1 THT       0.052700
     37 H101        -1.5980    -1.8920    -0.7960 hc         1 THT       0.038700
     38 H102        -1.9600    -0.1710    -0.9320 hc         1 THT       0.038700
     39 H111         0.2610     0.3800     0.1050 hc         1 THT       0.039700
     40 H112         0.6240    -1.3410     0.2420 hc         1 THT       0.039700
     41 H121        -1.3600    -1.6380     1.7570 hc         1 THT       0.037700
     42 H122        -1.7220     0.0830     1.6200 hc         1 THT       0.037700
     43 H131         0.4990     0.6330     2.6580 hc         1 THT       0.037700
     44 H132         0.8610    -1.0880     2.7950 hc         1 THT       0.037700
     45 H141        -1.1220    -1.3850     4.3090 hc         1 THT       0.037700
     46 H142        -1.4840     0.3360     4.1720 hc         1 THT       0.037700
     47 H151         0.7370     0.8860     5.2110 hc         1 THT       0.037700
     48 H152         1.0990    -0.8350     5.3480 hc         1 THT       0.037700
     49 H161        -0.8840    -1.1320     6.8620 hc         1 THT       0.036700
     50 H162        -1.2460     0.5890     6.7250 hc         1 THT       0.036700
     51 H171         0.9750     1.1380     7.7640 hc         1 THT       0.037200
     52 H172         1.3370    -0.5830     7.9000 hc         1 THT       0.037200
     53 H181        -0.6470    -0.8800     9.4140 hc         1 THT       0.036700
     54 H182        -1.0080     0.8410     9.2780 hc         1 THT       0.036700
     55 H191         1.2130     1.3900    10.3170 hc         1 THT       0.036700
     56 H192         1.5750    -0.3310    10.4530 hc         1 THT       0.036700
     57 H201        -0.4090    -0.6280    11.9670 hc         1 THT       0.036700
     58 H202        -0.7700     1.0930    11.8310 hc         1 THT       0.036700
     59 H211         1.4510     1.6420    12.8750 hc         1 THT       0.036700
     60 H212         1.8130    -0.0790    13.0110 hc         1 THT       0.036700
     61 H221         0.9980     0.8250    15.1840 hc         1 THT       0.031367
     62 H222        -0.5160     1.3590    14.4210 hc         1 THT       0.031367
     63 H223        -0.1510    -0.3780    14.5580 hc         1 THT       0.031367
@<TRIPOS>BOND
     1     1     2 1   
     2     1    25 1   
     3     1    26 1   
     4     1    27 1   
     5     2     3 2   
     6     2     4 1   
     7     4     5 1   
     8     4    28 1   
     9     5     6 1   
    10     5    29 1   
    11     5    30 1   
    12     6     7 1   
    13     6    31 1   
    14     6    32 1   
    15     7     8 1   
    16     8     9 2   
    17     8    10 1   
    18    10    11 1   
    19    10    33 1   
    20    10    34 1   
    21    11    12 1   
    22    11    35 1   
    23    11    36 1   
    24    12    13 1   
    25    12    37 1   
    26    12    38 1   
    27    13    14 1   
    28    13    39 1   
    29    13    40 1   
    30    14    15 1   
    31    14    41 1   
    32    14    42 1   
    33    15    16 1   
    34    15    43 1   
    35    15    44 1   
    36    16    17 1   
    37    16    45 1   
    38    16    46 1   
    39    17    18 1   
    40    17    47 1   
    41    17    48 1   
    42    18    19 1   
    43    18    49 1   
    44    18    50 1   
    45    19    20 1   
    46    19    51 1   
    47    19    52 1   
    48    20    21 1   
    49    20    53 1   
    50    20    54 1   
    51    21    22 1   
    52    21    55 1   
    53    21    56 1   
    54    22    23 1   
    55    22    57 1   
    56    22    58 1   
    57    23    24 1   
    58    23    59 1   
    59    23    60 1   
    60    24    61 1   
    61    24    62 1   
    62    24    63 1   
@<TRIPOS>SUBSTRUCTURE
     1 THT         1 TEMP              0 ****  ****    0 ROOT
