@<TRIPOS>MOLECULE
THU
   30    31     1     0     0
SMALL
abcg2


@<TRIPOS>ATOM
      1 N1          -0.9130    -0.3410    -0.0990 n          1 THU      -0.422800
      2 C2          -1.8550    -0.8960    -0.8930 c          1 THU       0.636000
      3 O2          -1.6650    -1.8080    -1.6760 o          1 THU      -0.565000
      4 N3          -3.1360    -0.3630    -0.7570 ns         1 THU      -0.486500
      5 C4          -3.4770     0.8520    -0.2210 c          1 THU       0.579000
      6 O4          -4.6130     1.2700    -0.2760 o          1 THU      -0.519000
      7 C5          -2.3220     1.5880     0.3900 c6         1 THU      -0.185400
      8 C6          -1.2940     0.6160     0.9270 c6         1 THU       0.108000
      9 C1           0.4680    -0.7330    -0.2210 c5         1 THU       0.344700
     10 C7           1.0920    -1.2750     1.0630 c5         1 THU      -0.167400
     11 C3           2.5550    -0.9000     0.8850 c5         1 THU       0.138300
     12 O3           3.2210    -1.7640    -0.0070 oh         1 THU      -0.710000
     13 C8           2.4130     0.4730     0.2360 c5         1 THU       0.172300
     14 O1           1.2430     0.3980    -0.5740 os         1 THU      -0.449000
     15 C9           3.5980     0.9190    -0.5890 c3         1 THU       0.167600
     16 O5           3.3840     2.2560    -0.9820 oh         1 THU      -0.716000
     17 HN3         -3.8560    -0.8560    -1.2720 hn         1 THU       0.339500
     18 H51         -2.6880     2.2400     1.1810 hc         1 THU       0.090700
     19 H52         -1.8770     2.2220    -0.3830 hc         1 THU       0.090700
     20 H61         -1.6850     0.0970     1.8060 h1         1 THU       0.055700
     21 H62         -0.4100     1.1670     1.2410 h1         1 THU       0.055700
     22 H1           0.5200    -1.4780    -1.0150 h2         1 THU       0.107700
     23 H2'1         0.6900    -0.7740     1.9470 hc         1 THU       0.067700
     24 H2'2         0.9240    -2.3460     1.1850 hc         1 THU       0.067700
     25 H3           3.0840    -0.8240     1.8420 h1         1 THU       0.053700
     26 HO3          3.2270    -2.6470     0.3770 ho         1 THU       0.510000
     27 H4           2.2580     1.2080     1.0390 h1         1 THU       0.055700
     28 H5'1         3.7200     0.2570    -1.4530 h1         1 THU       0.038200
     29 H5'2         4.5010     0.8200     0.0280 h1         1 THU       0.038200
     30 HO5          4.0990     2.5100    -1.5720 ho         1 THU       0.506000
@<TRIPOS>BOND
     1     1     2 1   
     2     1     8 1   
     3     1     9 1   
     4     2     3 2   
     5     2     4 1   
     6     4     5 1   
     7     4    17 1   
     8     5     6 2   
     9     5     7 1   
    10     7     8 1   
    11     7    18 1   
    12     7    19 1   
    13     8    20 1   
    14     8    21 1   
    15     9    10 1   
    16     9    14 1   
    17     9    22 1   
    18    10    11 1   
    19    10    23 1   
    20    10    24 1   
    21    11    12 1   
    22    11    13 1   
    23    11    25 1   
    24    12    26 1   
    25    13    14 1   
    26    13    15 1   
    27    13    27 1   
    28    15    16 1   
    29    15    28 1   
    30    15    29 1   
    31    16    30 1   
@<TRIPOS>SUBSTRUCTURE
     1 THU         1 TEMP              0 ****  ****    0 ROOT
