@<TRIPOS>MOLECULE
THU
   30    31     1     0     0
SMALL
No Charge or Current Charge


@<TRIPOS>ATOM
      1 N1          -0.9050    -0.2230    -0.1910 n          1 THU      -0.422800
      2 C2          -1.9580    -1.0330    -0.6470 c          1 THU       0.636000
      3 O2          -1.7830    -2.1140    -1.1820 o          1 THU      -0.565000
      4 N3          -3.2160    -0.5580    -0.4490 ns         1 THU      -0.486500
      5 C4          -3.5970     0.6630     0.0090 c          1 THU       0.579000
      6 O4          -4.7640     0.9140     0.2630 o          1 THU      -0.519000
      7 C5          -2.4800     1.6760     0.2050 c6         1 THU      -0.185400
      8 C6          -1.1640     0.9990     0.6140 c6         1 THU       0.108000
      9 C1           0.4850    -0.6720    -0.4480 c5         1 THU       0.344700
     10 C7           1.0100    -1.3350     0.8590 c5         1 THU      -0.167400
     11 C3           2.5230    -1.0590     0.7260 c5         1 THU       0.138300
     12 O3           3.1360    -1.9480    -0.2200 oh         1 THU      -0.710000
     13 C8           2.4440     0.4280     0.2460 c5         1 THU       0.172300
     14 O1           1.3610     0.4440    -0.7220 os         1 THU      -0.449000
     15 C9           3.7550     1.0040    -0.3630 c3         1 THU       0.167600
     16 O5           3.6800     2.4350    -0.5330 oh         1 THU      -0.716000
     17 HN3         -3.9620    -1.1970    -0.6750 hn         1 THU       0.339500
     18 H51         -2.7940     2.4810     0.8800 hc         1 THU       0.090700
     19 H52         -2.3020     2.1150    -0.7850 hc         1 THU       0.090700
     20 H61         -1.2230     0.7110     1.6730 h1         1 THU       0.055700
     21 H62         -0.3400     1.7190     0.5150 h1         1 THU       0.055700
     22 H1           0.4960    -1.3730    -1.2940 h2         1 THU       0.107700
     23 H2'1         0.6050    -0.8650     1.7620 hc         1 THU       0.067700
     24 H2'2         0.7670    -2.4010     0.9120 hc         1 THU       0.067700
     25 H3           3.0320    -1.1310     1.6980 h1         1 THU       0.053700
     26 HO3          3.2060    -2.8310     0.2140 ho         1 THU       0.510000
     27 H4           2.1520     1.0640     1.0930 h1         1 THU       0.055700
     28 H5'1         3.9470     0.5080    -1.3250 h1         1 THU       0.038200
     29 H5'2         4.5870     0.7510     0.3090 h1         1 THU       0.038200
     30 HO5          4.5100     2.7140    -0.9860 ho         1 THU       0.506000
@<TRIPOS>BOND
     1     1     2 1   
     2     1     8 1   
     3     1     9 1   
     4     2     3 2   
     5     2     4 1   
     6     4     5 1   
     7     4    17 1   
     8     5     6 2   
     9     5     7 1   
    10     7     8 1   
    11     7    18 1   
    12     7    19 1   
    13     8    20 1   
    14     8    21 1   
    15     9    10 1   
    16     9    14 1   
    17     9    22 1   
    18    10    11 1   
    19    10    23 1   
    20    10    24 1   
    21    11    12 1   
    22    11    13 1   
    23    11    25 1   
    24    12    26 1   
    25    13    14 1   
    26    13    15 1   
    27    13    27 1   
    28    15    16 1   
    29    15    28 1   
    30    15    29 1   
    31    16    30 1   
@<TRIPOS>SUBSTRUCTURE
     1 THU         1 TEMP              0 ****  ****    0 ROOT
