@<TRIPOS>MOLECULE
THZ
   37    38     1     0     0
SMALL
No Charge or Current Charge


@<TRIPOS>ATOM
      1 C           14.3620   -10.6690    17.9370 c          1 THZ       0.531800
      2 N           15.5040   -10.2920    20.2230 n8         1 THZ      -0.895800
      3 O           13.4660    -9.9230    17.5370 o          1 THZ      -0.495100
      4 S1          15.3100   -10.8410    15.2570 ss         1 THZ       0.001900
      5 CA          14.4640   -11.0550    19.4610 c3         1 THZ       0.094500
      6 CB          13.0940   -10.9460    20.1880 c3         1 THZ      -0.081400
      7 CD          11.6680   -11.5180    22.2570 c3         1 THZ       0.221800
      8 NE          11.6940   -12.1540    23.5810 nu         1 THZ      -0.847200
      9 CG          13.0620   -11.5890    21.5990 c3         1 THZ      -0.094400
     10 CZ          10.6370   -12.2420    24.3910 c2         1 THZ       0.787100
     11 N11         16.3740   -12.0650    17.4120 nc         1 THZ      -0.518100
     12 C17         15.3830   -11.2420    16.9980 cd         1 THZ       0.296200
     13 C21         17.1210   -12.4010    16.2880 ca         1 THZ       0.083400
     14 C31         18.2420   -13.2470    16.3260 ca         1 THZ      -0.069000
     15 C41         18.9410   -13.5340    15.1350 ca         1 THZ      -0.131000
     16 C51         18.5180   -12.9750    13.9110 ca         1 THZ      -0.111000
     17 C61         17.3940   -12.1280    13.8790 ca         1 THZ      -0.092000
     18 C71         16.7200   -11.8610    15.0800 ca         1 THZ      -0.069100
     19 NH1          9.4950   -11.8160    24.1120 n2         1 THZ      -0.888100
     20 NH2         11.0220   -12.8330    25.5080 nv         1 THZ      -0.958800
     21 H           15.5240   -10.6240    21.1930 hn         1 THZ       0.355800
     22 H2          16.4350   -10.5290    19.8590 hn         1 THZ       0.355800
     23 HA          14.7530   -12.1150    19.4870 h1         1 THZ       0.056700
     24 HB          12.8020    -9.8900    20.2620 hc         1 THZ       0.065700
     25 HBA         12.3300   -11.4370    19.5710 hc         1 THZ       0.065700
     26 HD          11.3640   -10.4660    22.3490 h1         1 THZ       0.055200
     27 HDA         10.9370   -12.0250    21.6110 h1         1 THZ       0.055200
     28 HNE         12.5790   -12.1540    24.0690 hn         1 THZ       0.409800
     29 HG          13.3690   -12.6400    21.5210 hc         1 THZ       0.039200
     30 HGA         13.7860   -11.0860    22.2510 hc         1 THZ       0.039200
     31 H31         18.5670   -13.6770    17.2710 ha         1 THZ       0.148000
     32 H41         19.8100   -14.1890    15.1610 ha         1 THZ       0.137000
     33 H51         19.0590   -13.1980    12.9930 ha         1 THZ       0.135000
     34 H61         17.0560   -11.6890    12.9420 ha         1 THZ       0.145000
     35 HNH1         8.8900   -11.9970    24.9200 hn         1 THZ       0.377400
     36 HNH2        10.2560   -13.1460    26.0870 hn         1 THZ       0.396800
     37 HNHA        11.7450   -13.5210    25.3580 hn         1 THZ       0.396800
@<TRIPOS>BOND
     1     1     3 2   
     2     1     5 1   
     3     1    12 1   
     4     2     5 1   
     5     2    21 1   
     6     2    22 1   
     7     4    12 1   
     8     4    18 1   
     9     5     6 1   
    10     5    23 1   
    11     6     9 1   
    12     6    24 1   
    13     6    25 1   
    14     7     8 1   
    15     7     9 1   
    16     7    26 1   
    17     7    27 1   
    18     8    10 1   
    19     8    28 1   
    20     9    29 1   
    21     9    30 1   
    22    10    19 2   
    23    10    20 1   
    24    11    12 2   
    25    11    13 1   
    26    13    14 ar  
    27    13    18 ar  
    28    14    15 ar  
    29    14    31 1   
    30    15    16 ar  
    31    15    32 1   
    32    16    17 ar  
    33    16    33 1   
    34    17    18 ar  
    35    17    34 1   
    36    19    35 1   
    37    20    36 1   
    38    20    37 1   
@<TRIPOS>SUBSTRUCTURE
     1 THZ         1 TEMP              0 ****  ****    0 ROOT
