@<TRIPOS>MOLECULE
THZ
   37    38     1     0     0
SMALL
bcc


@<TRIPOS>ATOM
      1 C           14.2440   -10.9560    17.9600 c          1 THZ       0.531800
      2 N           15.5000   -10.6800    19.9320 n8         1 THZ      -0.895800
      3 O           13.3720   -10.2390    17.5280 o          1 THZ      -0.495100
      4 S1          15.3070   -10.8030    15.4020 ss         1 THZ       0.001900
      5 CA          14.3550   -11.4200    19.4020 c3         1 THZ       0.094500
      6 CB          13.0820   -11.1300    20.1850 c3         1 THZ      -0.081400
      7 CD          11.7740   -11.5200    22.2990 c3         1 THZ       0.221800
      8 NE          11.8020   -12.1270    23.6100 nu         1 THZ      -0.847200
      9 CG          13.0790   -11.7830    21.5630 c3         1 THZ      -0.094400
     10 CZ          10.6940   -12.0890    24.4160 c2         1 THZ       0.787100
     11 N11         16.2790   -12.1950    17.3510 nc         1 THZ      -0.518100
     12 C17         15.3240   -11.3910    17.0390 cd         1 THZ       0.296200
     13 C21         17.1050   -12.4100    16.2810 ca         1 THZ       0.083400
     14 C31         18.2400   -13.2260    16.2850 ca         1 THZ      -0.069000
     15 C41         18.9760   -13.3380    15.1260 ca         1 THZ      -0.131000
     16 C51         18.5980   -12.6510    13.9620 ca         1 THZ      -0.111000
     17 C61         17.4800   -11.8410    13.9370 ca         1 THZ      -0.092000
     18 C71         16.7360   -11.7260    15.1080 ca         1 THZ      -0.069100
     19 NH1          9.5670   -11.6870    23.9570 n2         1 THZ      -0.888100
     20 NH2         10.9480   -12.4890    25.7130 nv         1 THZ      -0.958800
     21 H           15.4260   -10.5960    20.9380 hn         1 THZ       0.355800
     22 H2          16.3570   -11.1850    19.7490 hn         1 THZ       0.355800
     23 HA          14.5190   -12.5060    19.3990 h1         1 THZ       0.056700
     24 HB          12.9480   -10.0490    20.2820 hc         1 THZ       0.065700
     25 HBA         12.2240   -11.5020    19.6190 hc         1 THZ       0.065700
     26 HD          11.5950   -10.4380    22.3550 h1         1 THZ       0.055200
     27 HDA         10.9430   -11.9420    21.7330 h1         1 THZ       0.055200
     28 HNE         12.6870   -12.0600    24.0890 hn         1 THZ       0.409800
     29 HG          13.2280   -12.8610    21.4590 hc         1 THZ       0.039200
     30 HGA         13.9110   -11.4090    22.1680 hc         1 THZ       0.039200
     31 H31         18.5240   -13.7510    17.1880 ha         1 THZ       0.148000
     32 H41         19.8590   -13.9630    15.1080 ha         1 THZ       0.137000
     33 H51         19.1950   -12.7560    13.0660 ha         1 THZ       0.135000
     34 H61         17.1950   -11.3140    13.0360 ha         1 THZ       0.145000
     35 HNH1         8.8380   -11.7940    24.6520 hn         1 THZ       0.377400
     36 HNH2        10.1330   -12.7290    26.2540 hn         1 THZ       0.396800
     37 HNHA        11.6890   -13.1620    25.8360 hn         1 THZ       0.396800
@<TRIPOS>BOND
     1     1     3 2   
     2     1     5 1   
     3     1    12 1   
     4     2     5 1   
     5     2    21 1   
     6     2    22 1   
     7     4    12 1   
     8     4    18 1   
     9     5     6 1   
    10     5    23 1   
    11     6     9 1   
    12     6    24 1   
    13     6    25 1   
    14     7     8 1   
    15     7     9 1   
    16     7    26 1   
    17     7    27 1   
    18     8    10 1   
    19     8    28 1   
    20     9    29 1   
    21     9    30 1   
    22    10    19 2   
    23    10    20 1   
    24    11    12 2   
    25    11    13 1   
    26    13    14 ar  
    27    13    18 ar  
    28    14    15 ar  
    29    14    31 1   
    30    15    16 ar  
    31    15    32 1   
    32    16    17 ar  
    33    16    33 1   
    34    17    18 ar  
    35    17    34 1   
    36    19    35 1   
    37    20    36 1   
    38    20    37 1   
@<TRIPOS>SUBSTRUCTURE
     1 THZ         1 TEMP              0 ****  ****    0 ROOT
