@<TRIPOS>MOLECULE
TI0
   42    43     1     0     0
SMALL
No Charge or Current Charge


@<TRIPOS>ATOM
      1 C1          15.2460    41.1130   108.0750 c6         1 TI0       0.370300
      2 C2          14.2910    40.5020   107.0000 c6         1 TI0       0.099700
      3 C3          12.8070    40.6950   107.4470 c6         1 TI0       0.162300
      4 C4          12.5820    40.1300   108.8800 c6         1 TI0       0.123300
      5 C5          13.6090    40.7800   109.8560 c6         1 TI0       0.123300
      6 C6          13.5030    40.1910   111.3010 c3         1 TI0       0.163600
      7 N2          14.5230    41.0750   105.6510 ns         1 TI0      -0.500900
      8 O1          15.1160    42.5510   108.1280 os         1 TI0      -0.393100
      9 O4          12.7370    38.6970   108.8750 oh         1 TI0      -0.705000
     10 O5          14.9590    40.5490   109.3790 os         1 TI0      -0.441000
     11 O6          13.7580    38.7670   111.3470 oh         1 TI0      -0.725000
     12 O8          19.4950    45.4600   111.7780 o          1 TI0      -0.401500
     13 O2          18.2690    47.1660   111.1910 o          1 TI0      -0.401500
     14 C12         17.6500    45.0470   110.3810 ca         1 TI0      -0.214200
     15 C11         17.9120    43.6590   110.3290 ca         1 TI0      -0.007500
     16 C10         17.0790    42.8060   109.5830 ca         1 TI0      -0.182000
     17 C13         16.5420    45.5660   109.6730 ca         1 TI0      -0.007500
     18 C14         15.7150    44.7050   108.9310 ca         1 TI0      -0.182000
     19 C9          15.9720    43.3290   108.8820 ca         1 TI0       0.188100
     20 C7          15.6170    40.8240   104.8620 c          1 TI0       0.603100
     21 C8          15.6070    41.5140   103.5050 c3         1 TI0      -0.174100
     22 O3          11.9100    40.0390   106.5370 oh         1 TI0      -0.627000
     23 H1          16.2780    40.8560   107.7900 h2         1 TI0       0.100700
     24 H2          14.5020    39.4230   106.9560 h1         1 TI0       0.137700
     25 H3          12.5880    41.7730   107.4630 h1         1 TI0       0.035700
     26 H4          11.5680    40.3960   109.2140 h1         1 TI0       0.037700
     27 H5          13.4260    41.8630   109.9170 h1         1 TI0       0.058700
     28 H6          14.2240    40.7270   111.9350 h1         1 TI0       0.044200
     29 H7          12.5010    40.4110   111.6920 h1         1 TI0       0.044200
     30 H8          13.8070    41.6730   105.2570 hn         1 TI0       0.316500
     31 H9          13.1680    38.5070   109.7610 ho         1 TI0       0.533000
     32 H10         13.9270    38.5370   112.2930 ho         1 TI0       0.514000
     33 H12         17.3100    41.7450   109.5670 ha         1 TI0       0.142000
     34 H13         16.3140    46.6310   109.6910 ha         1 TI0       0.154000
     35 H14         14.8650    45.1100   108.3880 ha         1 TI0       0.142000
     36 H15         14.6870    41.2440   102.9750 hc         1 TI0       0.062033
     37 H16         15.4830    42.5920   103.6550 hc         1 TI0       0.062033
     38 H17         16.4990    41.2870   102.9110 hc         1 TI0       0.062033
     39 H18         11.8110    39.1310   106.9070 ho         1 TI0       0.443000
     40 H11         18.7590    43.2300   110.8640 ha         1 TI0       0.154000
     41 O7          16.5310    40.1010   105.2310 o          1 TI0      -0.595100
     42 N1          18.5360    45.9570   111.1740 no         1 TI0       0.680200
@<TRIPOS>BOND
     1     1     2 1   
     2     1     8 1   
     3     1    10 1   
     4     1    23 1   
     5     2     3 1   
     6     2     7 1   
     7     2    24 1   
     8     3     4 1   
     9     3    22 1   
    10     3    25 1   
    11     4     5 1   
    12     4     9 1   
    13     4    26 1   
    14     5     6 1   
    15     5    10 1   
    16     5    27 1   
    17     6    11 1   
    18     6    28 1   
    19     6    29 1   
    20     7    20 1   
    21     7    30 1   
    22     8    19 1   
    23     9    31 1   
    24    11    32 1   
    25    12    42 1   
    26    13    42 1   
    27    14    15 ar  
    28    14    17 ar  
    29    14    42 1   
    30    15    16 ar  
    31    15    40 1   
    32    16    19 ar  
    33    16    33 1   
    34    17    18 ar  
    35    17    34 1   
    36    18    19 ar  
    37    18    35 1   
    38    20    21 1   
    39    20    41 2   
    40    21    36 1   
    41    21    37 1   
    42    21    38 1   
    43    22    39 1   
@<TRIPOS>SUBSTRUCTURE
     1 TI0         1 TEMP              0 ****  ****    0 ROOT
