@<TRIPOS>MOLECULE
TI0
   42    43     1     0     0
SMALL
abcg2


@<TRIPOS>ATOM
      1 C1          15.3270    41.1080   108.2700 c6         1 TI0       0.370300
      2 C2          14.4570    40.5650   107.1300 c6         1 TI0       0.099700
      3 C3          12.9760    40.6320   107.4980 c6         1 TI0       0.162300
      4 C4          12.7540    39.9520   108.8510 c6         1 TI0       0.123300
      5 C5          13.6500    40.6270   109.8930 c6         1 TI0       0.123300
      6 C6          13.5280    40.0720   111.2950 c3         1 TI0       0.163600
      7 N2          14.7510    41.2580   105.8980 ns         1 TI0      -0.500900
      8 O1          15.1180    42.5280   108.2920 os         1 TI0      -0.393100
      9 O4          13.0220    38.5620   108.7120 oh         1 TI0      -0.705000
     10 O5          15.0340    40.5310   109.5030 os         1 TI0      -0.441000
     11 O6          13.8420    38.6720   111.3070 oh         1 TI0      -0.725000
     12 O8          19.4200    45.6260   111.6170 o          1 TI0      -0.401500
     13 O2          18.2660    47.2640   110.8140 o          1 TI0      -0.401500
     14 C12         17.6200    45.1200   110.2660 ca         1 TI0      -0.214200
     15 C11         17.8350    43.7570   110.4280 ca         1 TI0      -0.007500
     16 C10         17.0080    42.8520   109.7870 ca         1 TI0      -0.182000
     17 C13         16.5830    45.6000   109.4670 ca         1 TI0      -0.007500
     18 C14         15.7620    44.7000   108.8240 ca         1 TI0      -0.182000
     19 C9          15.9720    43.3230   108.9740 ca         1 TI0       0.188100
     20 C7          15.2440    40.6560   104.7930 c          1 TI0       0.603100
     21 C8          15.4400    41.5520   103.5940 c3         1 TI0      -0.174100
     22 O3          12.2430    40.0100   106.4520 oh         1 TI0      -0.627000
     23 H1          16.3790    40.9040   108.0700 h2         1 TI0       0.100700
     24 H2          14.7320    39.5220   106.9870 h1         1 TI0       0.137700
     25 H3          12.6740    41.6800   107.5950 h1         1 TI0       0.035700
     26 H4          11.7110    40.1120   109.1530 h1         1 TI0       0.037700
     27 H5          13.3650    41.6830   109.9490 h1         1 TI0       0.058700
     28 H6          14.2130    40.6150   111.9530 h1         1 TI0       0.044200
     29 H7          12.5050    40.2390   111.6390 h1         1 TI0       0.044200
     30 H8          14.5520    42.2460   105.8600 hn         1 TI0       0.316500
     31 H9          13.2570    38.2330   109.5970 ho         1 TI0       0.533000
     32 H10         13.4530    38.2750   112.0950 ho         1 TI0       0.514000
     33 H12         17.1620    41.7950   109.9360 ha         1 TI0       0.142000
     34 H13         16.4330    46.6630   109.3540 ha         1 TI0       0.154000
     35 H14         14.9520    45.0400   108.1930 ha         1 TI0       0.142000
     36 H15         14.8520    41.1560   102.7650 hc         1 TI0       0.062033
     37 H16         15.1460    42.5840   103.7810 hc         1 TI0       0.062033
     38 H17         16.4910    41.5240   103.3020 hc         1 TI0       0.062033
     39 H18         11.3050    40.1960   106.5850 ho         1 TI0       0.443000
     40 H11         18.6400    43.4080   111.0580 ha         1 TI0       0.154000
     41 O7          15.5180    39.4560   104.7510 o          1 TI0      -0.595100
     42 N1          18.4910    46.0640   110.9420 no         1 TI0       0.680200
@<TRIPOS>BOND
     1     1     2 1   
     2     1     8 1   
     3     1    10 1   
     4     1    23 1   
     5     2     3 1   
     6     2     7 1   
     7     2    24 1   
     8     3     4 1   
     9     3    22 1   
    10     3    25 1   
    11     4     5 1   
    12     4     9 1   
    13     4    26 1   
    14     5     6 1   
    15     5    10 1   
    16     5    27 1   
    17     6    11 1   
    18     6    28 1   
    19     6    29 1   
    20     7    20 1   
    21     7    30 1   
    22     8    19 1   
    23     9    31 1   
    24    11    32 1   
    25    12    42 1   
    26    13    42 1   
    27    14    15 ar  
    28    14    17 ar  
    29    14    42 1   
    30    15    16 ar  
    31    15    40 1   
    32    16    19 ar  
    33    16    33 1   
    34    17    18 ar  
    35    17    34 1   
    36    18    19 ar  
    37    18    35 1   
    38    20    21 1   
    39    20    41 2   
    40    21    36 1   
    41    21    37 1   
    42    21    38 1   
    43    22    39 1   
@<TRIPOS>SUBSTRUCTURE
     1 TI0         1 TEMP              0 ****  ****    0 ROOT
