@<TRIPOS>MOLECULE
TI1
   53    53     1     0     0
SMALL
abcg2


@<TRIPOS>ATOM
      1 SG          -2.9900    -1.5960     1.8470 sh         1 TI1      -0.480800
      2 CA1         -1.4710    -0.6660     1.4610 c3         1 TI1       0.028300
      3 CB1         -0.4270    -0.7010     2.5760 c3         1 TI1      -0.085400
      4 CG1         -0.8900    -0.0460     3.8690 c3         1 TI1      -0.067400
      5 CD1          0.1970    -0.0410     4.9370 c3         1 TI1      -0.081400
      6 CE1         -0.2580     0.5920     6.2460 c3         1 TI1      -0.072400
      7 CF1          0.8270     0.5940     7.3140 c3         1 TI1      -0.087100
      8 C1          -0.8730    -1.1980     0.1720 c          1 TI1       0.609100
      9 O1          -0.5110    -2.3570     0.0560 o          1 TI1      -0.593100
     10 N2          -0.7350    -0.2940    -0.8150 ns         1 TI1      -0.497900
     11 CA2         -0.1390    -0.6420    -2.0810 c3         1 TI1       0.031700
     12 CB2         -0.3980     0.4670    -3.1090 c3         1 TI1      -0.047100
     13 CG2         -1.8660     0.6850    -3.3500 ca         1 TI1      -0.071300
     14 CD3         -2.5300     1.7770    -2.8010 ca         1 TI1      -0.107500
     15 CD4         -2.5960    -0.2290    -4.1080 ca         1 TI1      -0.107500
     16 CE3         -3.8940     1.9540    -2.9990 ca         1 TI1      -0.110500
     17 CE4         -3.9580    -0.0560    -4.3090 ca         1 TI1      -0.110500
     18 CZ2         -4.6120     1.0370    -3.7530 ca         1 TI1      -0.118000
     19 C2           1.3670    -0.9080    -1.9910 c          1 TI1       0.582100
     20 O2           1.9050    -1.6300    -2.8240 o          1 TI1      -0.650100
     21 N3           2.0120    -0.2700    -1.0190 ns         1 TI1      -0.453900
     22 CA3          3.4220    -0.4040    -0.7340 c3         1 TI1      -0.044300
     23 CB3          4.2830     0.3760    -1.7260 c3         1 TI1      -0.078100
     24 C3           3.6890     0.0920     0.7090 c          1 TI1       0.718000
     25 O3           2.7490     0.6650     1.2980 o          1 TI1      -0.729000
     26 OXT          4.8360    -0.1080     1.1410 o          1 TI1      -0.729000
     27 HS          -2.4040    -2.7860     2.0260 hs         1 TI1       0.239800
     28 HA1         -1.8170     0.3620     1.3230 h1         1 TI1       0.078700
     29 HB11         0.4720    -0.1910     2.2140 hc         1 TI1       0.084200
     30 HB12        -0.1390    -1.7390     2.7630 hc         1 TI1       0.084200
     31 HG11        -1.7740    -0.5650     4.2480 hc         1 TI1       0.033700
     32 HG12        -1.2010     0.9840     3.6640 hc         1 TI1       0.033700
     33 HD11         1.0780     0.4910     4.5610 hc         1 TI1       0.053700
     34 HD12         0.5220    -1.0700     5.1280 hc         1 TI1       0.053700
     35 HE11        -1.1380     0.0580     6.6170 hc         1 TI1       0.028200
     36 HE12        -0.5850     1.6190     6.0570 hc         1 TI1       0.028200
     37 HF11         0.4820     1.0650     8.2350 hc         1 TI1       0.028367
     38 HF12         1.1430    -0.4210     7.5600 hc         1 TI1       0.028367
     39 HF13         1.7110     1.1400     6.9770 hc         1 TI1       0.028367
     40 HN2         -1.0490     0.6510    -0.6640 hn         1 TI1       0.317500
     41 HA2         -0.5920    -1.5670    -2.4460 h1         1 TI1       0.084700
     42 HB21         0.0740     1.3950    -2.7740 hc         1 TI1       0.067200
     43 HB22         0.0960     0.1790    -4.0390 hc         1 TI1       0.067200
     44 HD3         -1.9760     2.5070    -2.2210 ha         1 TI1       0.114000
     45 HD4         -2.0930    -1.0820    -4.5500 ha         1 TI1       0.114000
     46 HE3         -4.3940     2.8100    -2.5640 ha         1 TI1       0.106000
     47 HE4         -4.5090    -0.7730    -4.9040 ha         1 TI1       0.106000
     48 HZ2         -5.6740     1.1740    -3.9120 ha         1 TI1       0.104000
     49 HN3          1.5030     0.2570    -0.3210 hn         1 TI1       0.338500
     50 HA3          3.6960    -1.4620    -0.7900 h1         1 TI1       0.057700
     51 HB31         4.0800     1.4460    -1.6600 hc         1 TI1       0.025033
     52 HB32         5.3400     0.2170    -1.5180 hc         1 TI1       0.025033
     53 HB33         4.0890     0.0560    -2.7490 hc         1 TI1       0.025033
@<TRIPOS>BOND
     1     1     2 1   
     2     1    27 1   
     3     2     3 1   
     4     2     8 1   
     5     2    28 1   
     6     3     4 1   
     7     3    29 1   
     8     3    30 1   
     9     4     5 1   
    10     4    31 1   
    11     4    32 1   
    12     5     6 1   
    13     5    33 1   
    14     5    34 1   
    15     6     7 1   
    16     6    35 1   
    17     6    36 1   
    18     7    37 1   
    19     7    38 1   
    20     7    39 1   
    21     8     9 2   
    22     8    10 1   
    23    10    11 1   
    24    10    40 1   
    25    11    12 1   
    26    11    19 1   
    27    11    41 1   
    28    12    13 1   
    29    12    42 1   
    30    12    43 1   
    31    13    14 ar  
    32    13    15 ar  
    33    14    16 ar  
    34    14    44 1   
    35    15    17 ar  
    36    15    45 1   
    37    16    18 ar  
    38    16    46 1   
    39    17    18 ar  
    40    17    47 1   
    41    18    48 1   
    42    19    20 2   
    43    19    21 1   
    44    21    22 1   
    45    21    49 1   
    46    22    23 1   
    47    22    24 1   
    48    22    50 1   
    49    23    51 1   
    50    23    52 1   
    51    23    53 1   
    52    24    25 1   
    53    24    26 1   
@<TRIPOS>SUBSTRUCTURE
     1 TI1         1 TEMP              0 ****  ****    0 ROOT
