@<TRIPOS>MOLECULE
TI1
   53    53     1     0     0
SMALL
No Charge or Current Charge


@<TRIPOS>ATOM
      1 SG          -3.1610     0.3870     1.2680 sh         1 TI1      -0.480800
      2 CA1         -1.3120     0.1090     1.2600 c3         1 TI1       0.028300
      3 CB1         -0.7850    -0.5210     2.5740 c3         1 TI1      -0.085400
      4 CG1         -0.9500     0.3880     3.8140 c3         1 TI1      -0.067400
      5 CD1         -0.3790    -0.2410     5.1040 c3         1 TI1      -0.081400
      6 CE1         -0.5450     0.6660     6.3430 c3         1 TI1      -0.072400
      7 CF1          0.0240     0.0390     7.6310 c3         1 TI1      -0.087100
      8 C1          -0.9000    -0.7360     0.0240 c          1 TI1       0.609100
      9 O1          -1.2440    -1.9020    -0.1220 o          1 TI1      -0.593100
     10 N2          -0.1060    -0.0830    -0.9000 ns         1 TI1      -0.497900
     11 CA2          0.2740    -0.6360    -2.2280 c3         1 TI1       0.031700
     12 CB2         -0.4350     0.1520    -3.3580 c3         1 TI1      -0.047100
     13 CG2         -1.9450     0.2390    -3.1620 ca         1 TI1      -0.071300
     14 CD3         -2.5490     1.4560    -2.7850 ca         1 TI1      -0.107500
     15 CD4         -2.7490    -0.9040    -3.3420 ca         1 TI1      -0.107500
     16 CE3         -3.9390     1.5270    -2.5900 ca         1 TI1      -0.110500
     17 CE4         -4.1390    -0.8320    -3.1470 ca         1 TI1      -0.110500
     18 CZ2         -4.7350     0.3830    -2.7710 ca         1 TI1      -0.118000
     19 C2           1.8200    -0.6960    -2.4330 c          1 TI1       0.582100
     20 O2           2.3280    -1.0340    -3.4960 o          1 TI1      -0.650100
     21 N3           2.5900    -0.3290    -1.3470 ns         1 TI1      -0.453900
     22 CA3          4.0710    -0.2600    -1.3160 c3         1 TI1      -0.044300
     23 CB3          4.5910     1.0080    -2.0290 c3         1 TI1      -0.078100
     24 C3           4.5950    -0.3470     0.1510 c          1 TI1       0.718000
     25 O3           3.9410     0.1920     1.0360 o          1 TI1      -0.729000
     26 OXT          5.5720    -1.0480     0.3730 o          1 TI1      -0.729000
     27 HS          -3.5030    -0.9240     1.1750 hs         1 TI1       0.239800
     28 HA1         -0.8420     1.0940     1.1490 h1         1 TI1       0.078700
     29 HB11         0.2800    -0.7540     2.4500 hc         1 TI1       0.084200
     30 HB12        -1.2970    -1.4770     2.7480 hc         1 TI1       0.084200
     31 HG11        -2.0130     0.6100     3.9680 hc         1 TI1       0.033700
     32 HG12        -0.4470     1.3460     3.6280 hc         1 TI1       0.033700
     33 HD11         0.6860    -0.4600     4.9590 hc         1 TI1       0.053700
     34 HD12        -0.8810    -1.1990     5.2900 hc         1 TI1       0.053700
     35 HE11        -1.6090     0.8850     6.4940 hc         1 TI1       0.028200
     36 HE12        -0.0430     1.6240     6.1620 hc         1 TI1       0.028200
     37 HF11        -0.1160     0.7180     8.4800 hc         1 TI1       0.028367
     38 HF12        -0.4840    -0.9060     7.8590 hc         1 TI1       0.028367
     39 HF13         1.0970    -0.1600     7.5240 hc         1 TI1       0.028367
     40 HN2          0.0780     0.8980    -0.7210 hn         1 TI1       0.317500
     41 HA2         -0.0650    -1.6790    -2.2810 h1         1 TI1       0.084700
     42 HB21         0.0010     1.1580    -3.4170 hc         1 TI1       0.067200
     43 HB22        -0.2170    -0.3270    -4.3210 hc         1 TI1       0.067200
     44 HD3         -1.9420     2.3460    -2.6370 ha         1 TI1       0.114000
     45 HD4         -2.2950    -1.8500    -3.6300 ha         1 TI1       0.114000
     46 HE3         -4.3990     2.4670    -2.2950 ha         1 TI1       0.106000
     47 HE4         -4.7540    -1.7190    -3.2870 ha         1 TI1       0.106000
     48 HZ2         -5.8100     0.4380    -2.6180 ha         1 TI1       0.104000
     49 HN3          2.0900    -0.0980    -0.4970 hn         1 TI1       0.338500
     50 HA3          4.4610    -1.1380    -1.8470 h1         1 TI1       0.057700
     51 HB31         4.2190     1.9130    -1.5320 hc         1 TI1       0.025033
     52 HB32         5.6870     1.0330    -2.0130 hc         1 TI1       0.025033
     53 HB33         4.2650     1.0310    -3.0750 hc         1 TI1       0.025033
@<TRIPOS>BOND
     1     1     2 1   
     2     1    27 1   
     3     2     3 1   
     4     2     8 1   
     5     2    28 1   
     6     3     4 1   
     7     3    29 1   
     8     3    30 1   
     9     4     5 1   
    10     4    31 1   
    11     4    32 1   
    12     5     6 1   
    13     5    33 1   
    14     5    34 1   
    15     6     7 1   
    16     6    35 1   
    17     6    36 1   
    18     7    37 1   
    19     7    38 1   
    20     7    39 1   
    21     8     9 2   
    22     8    10 1   
    23    10    11 1   
    24    10    40 1   
    25    11    12 1   
    26    11    19 1   
    27    11    41 1   
    28    12    13 1   
    29    12    42 1   
    30    12    43 1   
    31    13    14 ar  
    32    13    15 ar  
    33    14    16 ar  
    34    14    44 1   
    35    15    17 ar  
    36    15    45 1   
    37    16    18 ar  
    38    16    46 1   
    39    17    18 ar  
    40    17    47 1   
    41    18    48 1   
    42    19    20 2   
    43    19    21 1   
    44    21    22 1   
    45    21    49 1   
    46    22    23 1   
    47    22    24 1   
    48    22    50 1   
    49    23    51 1   
    50    23    52 1   
    51    23    53 1   
    52    24    25 1   
    53    24    26 1   
@<TRIPOS>SUBSTRUCTURE
     1 TI1         1 TEMP              0 ****  ****    0 ROOT
