@<TRIPOS>MOLECULE
TI2
   62    64     1     0     0
SMALL
abcg2


@<TRIPOS>ATOM
      1 SG           0.9460    -0.3500     4.2040 sh         1 TI2      -0.451800
      2 CA1         -0.3870    -0.2250     2.9650 c3         1 TI2       0.014300
      3 CB1         -1.6110     0.5300     3.4820 c3         1 TI2      -0.021100
      4 CG1         -2.2440    -0.1410     4.6670 ca         1 TI2      -0.073300
      5 CD1         -2.0420     0.3430     5.9570 ca         1 TI2      -0.097000
      6 CD2         -3.0300    -1.2790     4.4990 ca         1 TI2      -0.097000
      7 CE1         -2.6110    -0.2920     7.0530 ca         1 TI2      -0.113000
      8 CE2         -3.5970    -1.9210     5.5910 ca         1 TI2      -0.113000
      9 CZ1         -3.3880    -1.4290     6.8730 ca         1 TI2      -0.115000
     10 C1           0.1680     0.4140     1.6980 c          1 TI2       0.603100
     11 O1           0.1610     1.6240     1.5440 o          1 TI2      -0.614100
     12 N2           0.6450    -0.4570     0.7950 ns         1 TI2      -0.471900
     13 CA2          1.2320    -0.0810    -0.4630 c3         1 TI2       0.022700
     14 CB2          2.7710    -0.1950    -0.4430 c3         1 TI2      -0.054100
     15 CG2          3.3870     0.7850     0.5110 ca         1 TI2      -0.062300
     16 CD3          3.6370     0.4380     1.8340 ca         1 TI2      -0.100000
     17 CD4          3.6840     2.0820     0.0940 ca         1 TI2      -0.100000
     18 CE3          4.1650     1.3630     2.7250 ca         1 TI2      -0.117000
     19 CE4          4.2180     3.0080     0.9780 ca         1 TI2      -0.117000
     20 CZ2          4.4590     2.6510     2.2990 ca         1 TI2      -0.123000
     21 C2           0.6950    -0.9900    -1.5620 c          1 TI2       0.597100
     22 O2           0.4220    -2.1610    -1.3350 o          1 TI2      -0.624100
     23 N3           0.5800    -0.4110    -2.7610 ns         1 TI2      -0.444900
     24 CA3          0.4530    -1.1780    -3.9770 c3         1 TI2      -0.043300
     25 CB3         -0.0060    -0.2600    -5.1150 c3         1 TI2      -0.034100
     26 CG3         -1.3350     0.3900    -4.8490 ca         1 TI2      -0.083300
     27 CD5         -1.4350     1.7180    -4.4440 ca         1 TI2      -0.075000
     28 CE5         -2.6610     2.3080    -4.1750 ca         1 TI2      -0.176000
     29 CD6         -2.5180    -0.3350    -4.9770 ca         1 TI2      -0.075000
     30 CE6         -3.7530     0.2370    -4.7120 ca         1 TI2      -0.176000
     31 CZ3         -3.8310     1.5680    -4.3080 ca         1 TI2       0.111100
     32 OH          -5.0050     2.1810    -4.0430 oh         1 TI2      -0.547100
     33 C3           1.7700    -1.9100    -4.3570 c          1 TI2       0.715000
     34 O3           1.6750    -2.6740    -5.3380 o          1 TI2      -0.719500
     35 OXT          2.7810    -1.6740    -3.6760 o          1 TI2      -0.719500
     36 HS           1.2630     0.9510     4.2360 hs         1 TI2       0.228800
     37 HA1         -0.6580    -1.2660     2.7710 h1         1 TI2       0.093700
     38 HB11        -1.3280     1.5540     3.7300 hc         1 TI2       0.066200
     39 HB12        -2.3380     0.5930     2.6660 hc         1 TI2       0.066200
     40 HD1         -1.4330     1.2270     6.1040 ha         1 TI2       0.112500
     41 HD2         -3.2040    -1.6680     3.5020 ha         1 TI2       0.112500
     42 HE1         -2.4460     0.1010     8.0480 ha         1 TI2       0.107000
     43 HE2         -4.2050    -2.8040     5.4410 ha         1 TI2       0.107000
     44 HZ1         -3.8320    -1.9260     7.7260 ha         1 TI2       0.105000
     45 HN2          0.6040    -1.4440     0.9990 hn         1 TI2       0.334500
     46 HA2          0.9590     0.9560    -0.6650 h1         1 TI2       0.080700
     47 HB21         3.0410    -1.2180    -0.1700 hc         1 TI2       0.085200
     48 HB22         3.1420    -0.0340    -1.4570 hc         1 TI2       0.085200
     49 HD3          3.4050    -0.5620     2.1790 ha         1 TI2       0.115000
     50 HD4          3.4970     2.3700    -0.9340 ha         1 TI2       0.115000
     51 HE3          4.3500     1.0770     3.7520 ha         1 TI2       0.101500
     52 HE4          4.4490     4.0090     0.6360 ha         1 TI2       0.101500
     53 HZ2          4.8760     3.3730     2.9910 ha         1 TI2       0.098000
     54 HN3          0.9190     0.5340    -2.8520 hn         1 TI2       0.292500
     55 HA3         -0.3200    -1.9360    -3.8200 h1         1 TI2       0.067700
     56 HB31         0.7560     0.5060    -5.2900 hc         1 TI2       0.059200
     57 HB32        -0.0570    -0.8620    -6.0230 hc         1 TI2       0.059200
     58 HD5         -0.5360     2.3160    -4.3410 ha         1 TI2       0.113500
     59 HE5         -2.7110     3.3440    -3.8620 ha         1 TI2       0.107500
     60 HD6         -2.4790    -1.3700    -5.2950 ha         1 TI2       0.113500
     61 HE6         -4.6550    -0.3520    -4.8280 ha         1 TI2       0.107500
     62 HO          -5.7370     1.5670    -4.1700 ho         1 TI2       0.454000
@<TRIPOS>BOND
     1     1     2 1   
     2     1    36 1   
     3     2     3 1   
     4     2    10 1   
     5     2    37 1   
     6     3     4 1   
     7     3    38 1   
     8     3    39 1   
     9     4     5 ar  
    10     4     6 ar  
    11     5     7 ar  
    12     5    40 1   
    13     6     8 ar  
    14     6    41 1   
    15     7     9 ar  
    16     7    42 1   
    17     8     9 ar  
    18     8    43 1   
    19     9    44 1   
    20    10    11 2   
    21    10    12 1   
    22    12    13 1   
    23    12    45 1   
    24    13    14 1   
    25    13    21 1   
    26    13    46 1   
    27    14    15 1   
    28    14    47 1   
    29    14    48 1   
    30    15    16 ar  
    31    15    17 ar  
    32    16    18 ar  
    33    16    49 1   
    34    17    19 ar  
    35    17    50 1   
    36    18    20 ar  
    37    18    51 1   
    38    19    20 ar  
    39    19    52 1   
    40    20    53 1   
    41    21    22 2   
    42    21    23 1   
    43    23    24 1   
    44    23    54 1   
    45    24    25 1   
    46    24    33 1   
    47    24    55 1   
    48    25    26 1   
    49    25    56 1   
    50    25    57 1   
    51    26    27 ar  
    52    26    29 ar  
    53    27    28 ar  
    54    27    58 1   
    55    28    31 ar  
    56    28    59 1   
    57    29    30 ar  
    58    29    60 1   
    59    30    31 ar  
    60    30    61 1   
    61    31    32 1   
    62    32    62 1   
    63    33    34 1   
    64    33    35 1   
@<TRIPOS>SUBSTRUCTURE
     1 TI2         1 TEMP              0 ****  ****    0 ROOT
