@<TRIPOS>MOLECULE
TI2
   62    64     1     0     0
SMALL
No Charge or Current Charge


@<TRIPOS>ATOM
      1 SG           0.6180     0.5470     4.0220 sh         1 TI2      -0.451800
      2 CA1         -0.3760     0.3500     2.4510 c3         1 TI2       0.014300
      3 CB1         -1.7500     1.0610     2.5010 c3         1 TI2      -0.021100
      4 CG1         -2.6840     0.4650     3.5480 ca         1 TI2      -0.073300
      5 CD1         -2.8980     1.1230     4.7750 ca         1 TI2      -0.097000
      6 CD2         -3.3470    -0.7520     3.2920 ca         1 TI2      -0.097000
      7 CE1         -3.7620     0.5690     5.7360 ca         1 TI2      -0.113000
      8 CE2         -4.2110    -1.3060     4.2530 ca         1 TI2      -0.113000
      9 CZ1         -4.4180    -0.6450     5.4760 ca         1 TI2      -0.115000
     10 C1           0.4520     0.8230     1.2310 c          1 TI2       0.603100
     11 O1           0.7290     2.0000     1.0360 o          1 TI2      -0.614100
     12 N2           0.8430    -0.1770     0.3640 ns         1 TI2      -0.471900
     13 CA2          1.6390     0.0270    -0.8680 c3         1 TI2       0.022700
     14 CB2          3.1370    -0.2830    -0.6240 c3         1 TI2      -0.054100
     15 CG2          3.7510     0.5570     0.4920 ca         1 TI2      -0.062300
     16 CD3          3.8790     0.0320     1.7930 ca         1 TI2      -0.100000
     17 CD4          4.1880     1.8710     0.2310 ca         1 TI2      -0.100000
     18 CE3          4.4360     0.8120     2.8210 ca         1 TI2      -0.117000
     19 CE4          4.7470     2.6490     1.2590 ca         1 TI2      -0.117000
     20 CZ2          4.8710     2.1200     2.5550 ca         1 TI2      -0.123000
     21 C2           1.0630    -0.8500    -2.0120 c          1 TI2       0.597100
     22 O2           0.4310    -1.8810    -1.8050 o          1 TI2      -0.624100
     23 N3           1.3000    -0.3700    -3.2850 ns         1 TI2      -0.444900
     24 CA3          0.6550    -0.8820    -4.5200 c3         1 TI2      -0.043300
     25 CB3         -0.6480    -0.1030    -4.8420 c3         1 TI2      -0.034100
     26 CG3         -1.6260    -0.0490    -3.6700 ca         1 TI2      -0.083300
     27 CD5         -1.6320     1.0590    -2.7980 ca         1 TI2      -0.075000
     28 CE5         -2.5130     1.0930    -1.7020 ca         1 TI2      -0.176000
     29 CD6         -2.5150    -1.1160    -3.4370 ca         1 TI2      -0.075000
     30 CE6         -3.4000    -1.0770    -2.3440 ca         1 TI2      -0.176000
     31 CZ3         -3.3950     0.0270    -1.4770 ca         1 TI2       0.111100
     32 OH          -4.2490     0.0690    -0.4170 oh         1 TI2      -0.547100
     33 C3           1.6490    -0.8470    -5.7180 c          1 TI2       0.715000
     34 O3           1.8340    -1.8820    -6.3430 o          1 TI2      -0.719500
     35 OXT          2.2670     0.1880    -5.9350 o          1 TI2      -0.719500
     36 HS           0.9050     1.8620     3.8460 hs         1 TI2       0.228800
     37 HA1         -0.5620    -0.7230     2.3210 h1         1 TI2       0.093700
     38 HB11        -1.5970     2.1310     2.6850 hc         1 TI2       0.066200
     39 HB12        -2.2210     0.9890     1.5130 hc         1 TI2       0.066200
     40 HD1         -2.3920     2.0620     4.9880 ha         1 TI2       0.112500
     41 HD2         -3.1930    -1.2700     2.3480 ha         1 TI2       0.112500
     42 HE1         -3.9220     1.0810     6.6830 ha         1 TI2       0.107000
     43 HE2         -4.7190    -2.2460     4.0500 ha         1 TI2       0.107000
     44 HZ1         -5.0870    -1.0740     6.2200 ha         1 TI2       0.105000
     45 HN2          0.5370    -1.1200     0.5780 hn         1 TI2       0.334500
     46 HA2          1.5400     1.0730    -1.1860 h1         1 TI2       0.080700
     47 HB21         3.2480    -1.3500    -0.3960 hc         1 TI2       0.085200
     48 HB22         3.6940    -0.1190    -1.5560 hc         1 TI2       0.085200
     49 HD3          3.5400    -0.9790     2.0110 ha         1 TI2       0.115000
     50 HD4          4.0920     2.2900    -0.7680 ha         1 TI2       0.115000
     51 HE3          4.5270     0.4020     3.8250 ha         1 TI2       0.101500
     52 HE4          5.0820     3.6630     1.0520 ha         1 TI2       0.101500
     53 HZ2          5.3010     2.7240     3.3510 ha         1 TI2       0.098000
     54 HN3          1.8630     0.4690    -3.3620 hn         1 TI2       0.292500
     55 HA3          0.3910    -1.9350    -4.3590 h1         1 TI2       0.067700
     56 HB31        -0.3870     0.9160    -5.1530 hc         1 TI2       0.059200
     57 HB32        -1.1310    -0.5670    -5.7110 hc         1 TI2       0.059200
     58 HD5         -0.9480     1.8890    -2.9630 ha         1 TI2       0.113500
     59 HE5         -2.5090     1.9480    -1.0310 ha         1 TI2       0.107500
     60 HD6         -2.5150    -1.9790    -4.1000 ha         1 TI2       0.113500
     61 HE6         -4.0790    -1.9080    -2.1760 ha         1 TI2       0.107500
     62 HO          -4.8090    -0.7370    -0.4400 ho         1 TI2       0.454000
@<TRIPOS>BOND
     1     1     2 1   
     2     1    36 1   
     3     2     3 1   
     4     2    10 1   
     5     2    37 1   
     6     3     4 1   
     7     3    38 1   
     8     3    39 1   
     9     4     5 ar  
    10     4     6 ar  
    11     5     7 ar  
    12     5    40 1   
    13     6     8 ar  
    14     6    41 1   
    15     7     9 ar  
    16     7    42 1   
    17     8     9 ar  
    18     8    43 1   
    19     9    44 1   
    20    10    11 2   
    21    10    12 1   
    22    12    13 1   
    23    12    45 1   
    24    13    14 1   
    25    13    21 1   
    26    13    46 1   
    27    14    15 1   
    28    14    47 1   
    29    14    48 1   
    30    15    16 ar  
    31    15    17 ar  
    32    16    18 ar  
    33    16    49 1   
    34    17    19 ar  
    35    17    50 1   
    36    18    20 ar  
    37    18    51 1   
    38    19    20 ar  
    39    19    52 1   
    40    20    53 1   
    41    21    22 2   
    42    21    23 1   
    43    23    24 1   
    44    23    54 1   
    45    24    25 1   
    46    24    33 1   
    47    24    55 1   
    48    25    26 1   
    49    25    56 1   
    50    25    57 1   
    51    26    27 ar  
    52    26    29 ar  
    53    27    28 ar  
    54    27    58 1   
    55    28    31 ar  
    56    28    59 1   
    57    29    30 ar  
    58    29    60 1   
    59    30    31 ar  
    60    30    61 1   
    61    31    32 1   
    62    32    62 1   
    63    33    34 1   
    64    33    35 1   
@<TRIPOS>SUBSTRUCTURE
     1 TI2         1 TEMP              0 ****  ****    0 ROOT
