@<TRIPOS>MOLECULE
TI3
   52    54     1     0     0
SMALL
bcc


@<TRIPOS>ATOM
      1 SG           0.3360    -1.6630     3.2060 sh         1 TI3      -0.373900
      2 CA1          0.0770     0.1360     3.0370 c3         1 TI3      -0.038600
      3 CB1          0.6470     0.9330     4.2100 c3         1 TI3      -0.021100
      4 CG1         -0.0130     0.5920     5.5150 ca         1 TI3      -0.073300
      5 CD1          0.6020    -0.2550     6.4330 ca         1 TI3      -0.115000
      6 CD2         -1.2720     1.1040     5.8210 ca         1 TI3      -0.115000
      7 CE1         -0.0240    -0.5830     7.6280 ca         1 TI3      -0.130500
      8 CE2         -1.9030     0.7760     7.0130 ca         1 TI3      -0.130500
      9 CZ1         -1.2800    -0.0700     7.9220 ca         1 TI3      -0.132000
     10 C1           0.6780     0.5760     1.7120 c          1 TI3       0.666100
     11 O1           1.8720     0.8160     1.5970 o          1 TI3      -0.632100
     12 N2          -0.1890     0.6540     0.6980 ns         1 TI3      -0.535900
     13 CA2          0.2120     0.9590    -0.6470 c3         1 TI3       0.008000
     14 C2          -0.9460     0.6660    -1.5900 c          1 TI3       0.664100
     15 O2          -2.0580     0.3960    -1.1510 o          1 TI3      -0.603100
     16 N3          -0.6840     0.7400    -2.8990 n          1 TI3      -0.438800
     17 CD3          0.5540     1.2500    -3.4810 c5         1 TI3       0.159000
     18 CA3         -1.7460     0.5140    -3.8750 c5         1 TI3      -0.030300
     19 CB3         -1.0100     0.6700    -5.2070 c5         1 TI3      -0.079400
     20 CG3          0.0970     1.6650    -4.8880 c5         1 TI3      -0.089400
     21 CG4          1.6910     0.2520    -3.5130 ca         1 TI3      -0.103300
     22 CD5          2.9940     0.7330    -3.6250 ca         1 TI3      -0.113000
     23 CD4          1.4800    -1.1220    -3.4630 ca         1 TI3      -0.113000
     24 CE5          4.0700    -0.1400    -3.6980 ca         1 TI3      -0.140500
     25 CE4          2.5590    -1.9970    -3.5340 ca         1 TI3      -0.140500
     26 CZ3          3.8540    -1.5120    -3.6530 ca         1 TI3      -0.140000
     27 C3          -2.4450    -0.8580    -3.7770 c          1 TI3       0.943600
     28 O3          -1.7890    -1.8220    -3.3430 o          1 TI3      -0.822800
     29 OXT         -3.6100    -0.8780    -4.2180 o          1 TI3      -0.822800
     30 HS           1.6740    -1.6250     3.2410 hs         1 TI3       0.217800
     31 HA1         -1.0100     0.2470     3.0120 h1         1 TI3       0.094700
     32 HB11         1.7240     0.7670     4.2710 hc         1 TI3       0.062200
     33 HB12         0.5030     1.9960     3.9950 hc         1 TI3       0.062200
     34 HD1          1.5820    -0.6600     6.2110 ha         1 TI3       0.129000
     35 HD2         -1.7640     1.7700     5.1220 ha         1 TI3       0.129000
     36 HE1          0.4710    -1.2420     8.3300 ha         1 TI3       0.125000
     37 HE2         -2.8810     1.1850     7.2340 ha         1 TI3       0.125000
     38 HZ1         -1.7690    -0.3250     8.8530 ha         1 TI3       0.123000
     39 HN2         -1.1650     0.4450     0.8430 hn         1 TI3       0.349500
     40 HA21         1.0890     0.3720    -0.9300 h1         1 TI3       0.063700
     41 HA22         0.4960     2.0130    -0.7450 h1         1 TI3       0.063700
     42 HD3          0.8920     2.1340    -2.9310 h1         1 TI3       0.036700
     43 HA3         -2.4990     1.3030    -3.7760 h1         1 TI3       0.046700
     44 HB31        -0.5810    -0.2860    -5.5170 hc         1 TI3       0.054200
     45 HB32        -1.6710     1.0120    -6.0010 hc         1 TI3       0.054200
     46 HG31         0.9150     1.6550    -5.6060 hc         1 TI3       0.037200
     47 HG32        -0.3060     2.6800    -4.8510 hc         1 TI3       0.037200
     48 HD5          3.1680     1.8030    -3.6540 ha         1 TI3       0.161500
     49 HD4          0.4710    -1.5050    -3.3630 ha         1 TI3       0.161500
     50 HE5          5.0760     0.2500    -3.7830 ha         1 TI3       0.121500
     51 HE4          2.3850    -3.0650    -3.4950 ha         1 TI3       0.121500
     52 HZ3          4.6900    -2.1970    -3.7040 ha         1 TI3       0.114000
@<TRIPOS>BOND
     1     1     2 1   
     2     1    30 1   
     3     2     3 1   
     4     2    10 1   
     5     2    31 1   
     6     3     4 1   
     7     3    32 1   
     8     3    33 1   
     9     4     5 ar  
    10     4     6 ar  
    11     5     7 ar  
    12     5    34 1   
    13     6     8 ar  
    14     6    35 1   
    15     7     9 ar  
    16     7    36 1   
    17     8     9 ar  
    18     8    37 1   
    19     9    38 1   
    20    10    11 2   
    21    10    12 1   
    22    12    13 1   
    23    12    39 1   
    24    13    14 1   
    25    13    40 1   
    26    13    41 1   
    27    14    15 2   
    28    14    16 1   
    29    16    17 1   
    30    16    18 1   
    31    17    20 1   
    32    17    21 1   
    33    17    42 1   
    34    18    19 1   
    35    18    27 1   
    36    18    43 1   
    37    19    20 1   
    38    19    44 1   
    39    19    45 1   
    40    20    46 1   
    41    20    47 1   
    42    21    22 ar  
    43    21    23 ar  
    44    22    24 ar  
    45    22    48 1   
    46    23    25 ar  
    47    23    49 1   
    48    24    26 ar  
    49    24    50 1   
    50    25    26 ar  
    51    25    51 1   
    52    26    52 1   
    53    27    28 1   
    54    27    29 1   
@<TRIPOS>SUBSTRUCTURE
     1 TI3         1 TEMP              0 ****  ****    0 ROOT
