@<TRIPOS>MOLECULE
TI3
   52    54     1     0     0
SMALL
No Charge or Current Charge


@<TRIPOS>ATOM
      1 SG           1.0380    -1.9180     3.7910 sh         1 TI3      -0.421800
      2 CA1          0.3680    -0.2760     3.2040 c3         1 TI3       0.009300
      3 CB1          0.6040     0.8740     4.2130 c3         1 TI3      -0.021100
      4 CG1         -0.1190     0.6560     5.5380 ca         1 TI3      -0.073300
      5 CD1          0.5970     0.2680     6.6880 ca         1 TI3      -0.097000
      6 CD2         -1.5130     0.8450     5.6240 ca         1 TI3      -0.097000
      7 CE1         -0.0730     0.0690     7.9080 ca         1 TI3      -0.112500
      8 CE2         -2.1830     0.6470     6.8440 ca         1 TI3      -0.112500
      9 CZ1         -1.4630     0.2580     7.9860 ca         1 TI3      -0.114000
     10 C1           0.9530     0.0730     1.8120 c          1 TI3       0.599100
     11 O1           2.1440     0.2910     1.6260 o          1 TI3      -0.632100
     12 N2           0.0420     0.1200     0.7790 ns         1 TI3      -0.468900
     13 CA2          0.3830     0.4310    -0.6270 c3         1 TI3       0.008000
     14 C2          -0.8720     0.4460    -1.5420 c          1 TI3       0.597100
     15 O2          -1.9870     0.2040    -1.0890 o          1 TI3      -0.603100
     16 N3          -0.6910     0.7200    -2.9160 n          1 TI3      -0.371800
     17 CD3          0.5320     1.3630    -3.4510 c5         1 TI3       0.159000
     18 CA3         -1.8180     0.7380    -3.8980 c5         1 TI3      -0.030300
     19 CB3         -1.0490     0.8560    -5.2460 c5         1 TI3      -0.079400
     20 CG3          0.1030     1.8260    -4.8760 c5         1 TI3      -0.089400
     21 CG4          1.6600     0.3280    -3.6030 ca         1 TI3      -0.103300
     22 CD5          2.9960     0.7690    -3.5040 ca         1 TI3      -0.095000
     23 CD4          1.4210    -1.0490    -3.8270 ca         1 TI3      -0.095000
     24 CE5          4.0660    -0.1350    -3.6250 ca         1 TI3      -0.122500
     25 CE4          2.4900    -1.9530    -3.9480 ca         1 TI3      -0.122500
     26 CZ3          3.8140    -1.4970    -3.8470 ca         1 TI3      -0.122000
     27 C3          -2.7560    -0.5220    -3.9280 c          1 TI3       0.733000
     28 O3          -2.2700    -1.6460    -3.9280 o          1 TI3      -0.717500
     29 OXT         -3.9680    -0.3480    -3.9540 o          1 TI3      -0.717500
     30 HS           2.3490    -1.5760     3.7150 hs         1 TI3       0.217800
     31 HA1         -0.7150    -0.3970     3.0810 h1         1 TI3       0.094700
     32 HB11         1.6820     0.9950     4.3780 hc         1 TI3       0.062200
     33 HB12         0.2600     1.8150     3.7650 hc         1 TI3       0.062200
     34 HD1          1.6730     0.1160     6.6370 ha         1 TI3       0.111000
     35 HD2         -2.0780     1.1480     4.7450 ha         1 TI3       0.111000
     36 HE1          0.4850    -0.2330     8.7910 ha         1 TI3       0.107000
     37 HE2         -3.2590     0.7940     6.9030 ha         1 TI3       0.107000
     38 HZ1         -1.9820     0.1040     8.9300 ha         1 TI3       0.105000
     39 HN2         -0.9290    -0.0790     1.0010 hn         1 TI3       0.349500
     40 HA21         1.0810    -0.3260    -1.0060 h1         1 TI3       0.063700
     41 HA22         0.8650     1.4140    -0.6750 h1         1 TI3       0.063700
     42 HD3          0.8520     2.2150    -2.8350 h1         1 TI3       0.036700
     43 HA3         -2.4410     1.6260    -3.7280 h1         1 TI3       0.046700
     44 HB31        -0.6570    -0.1100    -5.5820 hc         1 TI3       0.054200
     45 HB32        -1.6810     1.2430    -6.0530 hc         1 TI3       0.054200
     46 HG31         0.9240     1.8090    -5.6020 hc         1 TI3       0.037200
     47 HG32        -0.2680     2.8570    -4.8420 hc         1 TI3       0.037200
     48 HD5          3.2080     1.8220    -3.3310 ha         1 TI3       0.143500
     49 HD4          0.4060    -1.4310    -3.9050 ha         1 TI3       0.143500
     50 HE5          5.0900     0.2220    -3.5460 ha         1 TI3       0.103500
     51 HE4          2.2910    -3.0090    -4.1190 ha         1 TI3       0.103500
     52 HZ3          4.6410    -2.1980    -3.9410 ha         1 TI3       0.096000
@<TRIPOS>BOND
     1     1     2 1   
     2     1    30 1   
     3     2     3 1   
     4     2    10 1   
     5     2    31 1   
     6     3     4 1   
     7     3    32 1   
     8     3    33 1   
     9     4     5 ar  
    10     4     6 ar  
    11     5     7 ar  
    12     5    34 1   
    13     6     8 ar  
    14     6    35 1   
    15     7     9 ar  
    16     7    36 1   
    17     8     9 ar  
    18     8    37 1   
    19     9    38 1   
    20    10    11 2   
    21    10    12 1   
    22    12    13 1   
    23    12    39 1   
    24    13    14 1   
    25    13    40 1   
    26    13    41 1   
    27    14    15 2   
    28    14    16 1   
    29    16    17 1   
    30    16    18 1   
    31    17    20 1   
    32    17    21 1   
    33    17    42 1   
    34    18    19 1   
    35    18    27 1   
    36    18    43 1   
    37    19    20 1   
    38    19    44 1   
    39    19    45 1   
    40    20    46 1   
    41    20    47 1   
    42    21    22 ar  
    43    21    23 ar  
    44    22    24 ar  
    45    22    48 1   
    46    23    25 ar  
    47    23    49 1   
    48    24    26 ar  
    49    24    50 1   
    50    25    26 ar  
    51    25    51 1   
    52    26    52 1   
    53    27    28 1   
    54    27    29 1   
@<TRIPOS>SUBSTRUCTURE
     1 TI3         1 TEMP              0 ****  ****    0 ROOT
