@<TRIPOS>MOLECULE
TI4
   34    37     1     0     0
SMALL
abcg2


@<TRIPOS>ATOM
      1 C1           3.4620     1.1040    -0.0780 ca         1 TI4      -0.168000
      2 C2           4.0700    -0.1390    -0.0380 ca         1 TI4       0.330900
      3 N3           3.4070    -1.2560     0.2440 nb         1 TI4      -0.669000
      4 C4           2.1070    -1.1620     0.4890 ca         1 TI4       0.350900
      5 C5           1.3850     0.0320     0.4740 ca         1 TI4      -0.122300
      6 C6           2.1010     1.1870     0.1830 ca         1 TI4      -0.077000
      7 C7          -0.0870     0.0240     0.8270 c6         1 TI4       0.216800
      8 N8          -0.7430    -1.1710     0.2870 n3         1 TI4      -0.686600
      9 C9          -2.0800    -1.2920     0.8620 c6         1 TI4       0.151800
     10 C10         -2.9530    -0.0860     0.5050 c6         1 TI4      -0.095200
     11 C11         -2.2750     1.1780     1.0360 c6         1 TI4      -0.069400
     12 C12         -0.8690     1.2900     0.4330 c6         1 TI4      -0.087700
     13 C13         -0.9810     1.3810    -1.0910 c6         1 TI4      -0.069400
     14 C14         -1.6630     0.1160    -1.6160 c6         1 TI4      -0.095200
     15 C15         -3.0690     0.0010    -1.0200 c6         1 TI4      -0.068400
     16 C16         -0.8420    -1.0970    -1.1700 c6         1 TI4       0.151800
     17 H1           4.0380     1.9890    -0.3090 ha         1 TI4       0.121000
     18 H2           5.1310    -0.2390    -0.2380 h4         1 TI4       0.017100
     19 H4           1.5890    -2.0890     0.7090 h4         1 TI4       0.035100
     20 H6           1.6150     2.1540     0.1590 ha         1 TI4       0.116000
     21 H7          -0.1380    -0.0650     1.9210 h1         1 TI4       0.066700
     22 H92         -2.5340    -2.2180     0.4940 h1         1 TI4       0.055700
     23 H93         -1.9870    -1.3940     1.9480 h1         1 TI4       0.055700
     24 H10         -3.9440    -0.2040     0.9540 hc         1 TI4       0.057200
     25 H113        -2.8630     2.0640     0.7750 hc         1 TI4       0.043700
     26 H112        -2.2140     1.1490     2.1290 hc         1 TI4       0.043700
     27 H12         -0.3800     2.1800     0.8380 hc         1 TI4       0.055700
     28 H133        -1.5550     2.2700    -1.3700 hc         1 TI4       0.043700
     29 H132         0.0060     1.4960    -1.5510 hc         1 TI4       0.043700
     30 H14         -1.7150     0.1400    -2.7080 hc         1 TI4       0.057200
     31 H152        -3.5740    -0.8870    -1.4140 hc         1 TI4       0.042700
     32 H153        -3.6780     0.8640    -1.3090 hc         1 TI4       0.042700
     33 H163         0.1640    -1.0570    -1.5970 h1         1 TI4       0.055700
     34 H162        -1.3000    -2.0240    -1.5270 h1         1 TI4       0.055700
@<TRIPOS>BOND
     1     1     2 ar  
     2     1     6 ar  
     3     1    17 1   
     4     2     3 ar  
     5     2    18 1   
     6     3     4 ar  
     7     4     5 ar  
     8     4    19 1   
     9     5     6 ar  
    10     5     7 1   
    11     6    20 1   
    12     7     8 1   
    13     7    12 1   
    14     7    21 1   
    15     8     9 1   
    16     8    16 1   
    17     9    10 1   
    18     9    22 1   
    19     9    23 1   
    20    10    11 1   
    21    10    15 1   
    22    10    24 1   
    23    11    12 1   
    24    11    25 1   
    25    11    26 1   
    26    12    13 1   
    27    12    27 1   
    28    13    14 1   
    29    13    28 1   
    30    13    29 1   
    31    14    15 1   
    32    14    16 1   
    33    14    30 1   
    34    15    31 1   
    35    15    32 1   
    36    16    33 1   
    37    16    34 1   
@<TRIPOS>SUBSTRUCTURE
     1 TI4         1 TEMP              0 ****  ****    0 ROOT
