@<TRIPOS>MOLECULE
TI4
   34    37     1     0     0
SMALL
No Charge or Current Charge


@<TRIPOS>ATOM
      1 C1           3.5220     1.1050    -0.1240 ca         1 TI4      -0.168000
      2 C2           4.1540    -0.1450    -0.0330 ca         1 TI4       0.330900
      3 N3           3.4980    -1.2730     0.3160 nb         1 TI4      -0.669000
      4 C4           2.1700    -1.1750     0.5770 ca         1 TI4       0.350900
      5 C5           1.4420     0.0320     0.4990 ca         1 TI4      -0.122300
      6 C6           2.1490     1.2060     0.1500 ca         1 TI4      -0.077000
      7 C7          -0.0640     0.0110     0.8450 c6         1 TI4       0.216800
      8 N8          -0.7580    -1.1930     0.2800 n3         1 TI4      -0.686600
      9 C9          -2.1250    -1.3360     0.8690 c6         1 TI4       0.151800
     10 C10         -2.9980    -0.0980     0.5090 c6         1 TI4      -0.095200
     11 C11         -2.3120     1.1820     1.0630 c6         1 TI4      -0.069400
     12 C12         -0.8820     1.2960     0.4570 c6         1 TI4      -0.087700
     13 C13         -1.0010     1.4110    -1.0940 c6         1 TI4      -0.069400
     14 C14         -1.6850     0.1270    -1.6410 c6         1 TI4      -0.095200
     15 C15         -3.1140     0.0060    -1.0390 c6         1 TI4      -0.068400
     16 C16         -0.8460    -1.1140    -1.2130 c6         1 TI4       0.151800
     17 H1           4.0980     1.9840    -0.4000 ha         1 TI4       0.121000
     18 H2           5.2200    -0.2460    -0.2390 h4         1 TI4       0.017100
     19 H4           1.6780    -2.1040     0.8650 h4         1 TI4       0.035100
     20 H6           1.6660     2.1770     0.0890 ha         1 TI4       0.116000
     21 H7          -0.0950    -0.0590     1.9440 h1         1 TI4       0.066700
     22 H92         -2.6120    -2.2480     0.4940 h1         1 TI4       0.055700
     23 H93         -2.0650    -1.4350     1.9640 h1         1 TI4       0.055700
     24 H10         -3.9980    -0.2080     0.9510 hc         1 TI4       0.057200
     25 H113        -2.9060     2.0730     0.8160 hc         1 TI4       0.043700
     26 H112        -2.2570     1.1390     2.1600 hc         1 TI4       0.043700
     27 H12         -0.4050     2.1940     0.8710 hc         1 TI4       0.055700
     28 H133        -1.5840     2.3010    -1.3680 hc         1 TI4       0.043700
     29 H132        -0.0130     1.5350    -1.5570 hc         1 TI4       0.043700
     30 H14         -1.7450     0.1740    -2.7370 hc         1 TI4       0.057200
     31 H152        -3.6220    -0.8810    -1.4420 hc         1 TI4       0.042700
     32 H153        -3.7260     0.8740    -1.3220 hc         1 TI4       0.042700
     33 H163         0.1570    -1.0490    -1.6600 h1         1 TI4       0.055700
     34 H162        -1.3120    -2.0250    -1.6170 h1         1 TI4       0.055700
@<TRIPOS>BOND
     1     1     2 ar  
     2     1     6 ar  
     3     1    17 1   
     4     2     3 ar  
     5     2    18 1   
     6     3     4 ar  
     7     4     5 ar  
     8     4    19 1   
     9     5     6 ar  
    10     5     7 1   
    11     6    20 1   
    12     7     8 1   
    13     7    12 1   
    14     7    21 1   
    15     8     9 1   
    16     8    16 1   
    17     9    10 1   
    18     9    22 1   
    19     9    23 1   
    20    10    11 1   
    21    10    15 1   
    22    10    24 1   
    23    11    12 1   
    24    11    25 1   
    25    11    26 1   
    26    12    13 1   
    27    12    27 1   
    28    13    14 1   
    29    13    28 1   
    30    13    29 1   
    31    14    15 1   
    32    14    16 1   
    33    14    30 1   
    34    15    31 1   
    35    15    32 1   
    36    16    33 1   
    37    16    34 1   
@<TRIPOS>SUBSTRUCTURE
     1 TI4         1 TEMP              0 ****  ****    0 ROOT
