@<TRIPOS>MOLECULE
TI5
   15    15     1     0     0
SMALL
abcg2


@<TRIPOS>ATOM
      1 C04        -10.3380     5.3840   -24.4870 ca         1 TI5      -0.254300
      2 C05        -11.6860     5.7800   -24.6860 ca         1 TI5       0.380900
      3 C06         -9.2400     5.8400   -25.3980 c3         1 TI5      -0.029800
      4 C07        -10.1170     4.5590   -23.4090 ca         1 TI5       0.130900
      5 C08        -12.3060     4.5610   -22.8590 ca         1 TI5       0.154900
      6 N01        -12.6600     5.3610   -23.8600 nb         1 TI5      -0.265000
      7 N02        -12.0450     6.5710   -25.7190 nv         1 TI5      -1.080900
      8 N03        -11.0850     4.1270   -22.5750 nb         1 TI5      -0.212000
      9 H1          -9.1570     6.9310   -25.4070 hc         1 TI5       0.040700
     10 H2          -8.2830     5.4290   -25.0790 hc         1 TI5       0.040700
     11 H3          -9.4230     5.5210   -26.4290 hc         1 TI5       0.040700
     12 H4          -9.1080     4.2190   -23.1960 h4         1 TI5       0.018100
     13 H5         -13.1090     4.2310   -22.2060 h5         1 TI5       0.045100
     14 H6         -12.9910     6.9130   -25.7600 hn         1 TI5       0.495000
     15 H7         -11.3540     7.0320   -26.2840 hn         1 TI5       0.495000
@<TRIPOS>BOND
     1     1     2 ar  
     2     1     3 1   
     3     1     4 ar  
     4     2     6 ar  
     5     2     7 1   
     6     3     9 1   
     7     3    10 1   
     8     3    11 1   
     9     4     8 ar  
    10     4    12 1   
    11     5     6 ar  
    12     5     8 ar  
    13     5    13 1   
    14     7    14 1   
    15     7    15 1   
@<TRIPOS>SUBSTRUCTURE
     1 TI5         1 TEMP              0 ****  ****    0 ROOT
