@<TRIPOS>MOLECULE
TI5
   15    15     1     0     0
SMALL
No Charge or Current Charge


@<TRIPOS>ATOM
      1 C04        -10.3530     5.3840   -24.5000 ca         1 TI5      -0.254300
      2 C05        -11.6950     5.7520   -24.7070 ca         1 TI5       0.380900
      3 C06         -9.2190     5.8370   -25.4150 c3         1 TI5      -0.029800
      4 C07        -10.0940     4.5590   -23.3870 ca         1 TI5       0.130900
      5 C08        -12.3270     4.5620   -22.8630 ca         1 TI5       0.154900
      6 N01        -12.6840     5.3490   -23.8980 nb         1 TI5      -0.265000
      7 N02        -12.0820     6.5450   -25.7400 nv         1 TI5      -1.080900
      8 N03        -11.0790     4.1450   -22.5650 nb         1 TI5      -0.212000
      9 H1          -9.1130     6.9280   -25.4040 hc         1 TI5       0.040700
     10 H2          -8.2560     5.4110   -25.1050 hc         1 TI5       0.040700
     11 H3          -9.3960     5.5230   -26.4510 hc         1 TI5       0.040700
     12 H4          -9.0860     4.2240   -23.1480 h4         1 TI5       0.018100
     13 H5         -13.1250     4.2300   -22.2010 h5         1 TI5       0.045100
     14 H6         -13.0180     6.9440   -25.7180 hn         1 TI5       0.495000
     15 H7         -11.3750     7.0650   -26.2530 hn         1 TI5       0.495000
@<TRIPOS>BOND
     1     1     2 ar  
     2     1     3 1   
     3     1     4 ar  
     4     2     6 ar  
     5     2     7 1   
     6     3     9 1   
     7     3    10 1   
     8     3    11 1   
     9     4     8 ar  
    10     4    12 1   
    11     5     6 ar  
    12     5     8 ar  
    13     5    13 1   
    14     7    14 1   
    15     7    15 1   
@<TRIPOS>SUBSTRUCTURE
     1 TI5         1 TEMP              0 ****  ****    0 ROOT
