@<TRIPOS>MOLECULE
TI7
   27    28     1     0     0
SMALL
bcc


@<TRIPOS>ATOM
      1 C            3.3030    -0.7860    -0.4950 c          1 TI7       0.924200
      2 O            4.4670    -0.3630    -0.3600 o          1 TI7      -0.825800
      3 C1           2.1810     0.1770    -0.1230 ca         1 TI7      -0.139600
      4 C10         -1.3120    -1.6940     1.5620 c3         1 TI7      -0.048800
      5 C11          0.1120     1.9380     0.5250 ca         1 TI7      -0.142000
      6 C12          1.4350     2.3390     0.6480 ca         1 TI7      -0.169000
      7 C13          2.4630     1.4640     0.3270 ca         1 TI7      -0.097000
      8 C2           0.8500    -0.2130    -0.2340 ca         1 TI7      -0.087000
      9 C3          -0.1950     0.6510     0.0860 cp         1 TI7      -0.092000
     10 C4          -1.6090     0.2340    -0.0710 cp         1 TI7       0.002000
     11 C5          -2.4360     0.9790    -0.9120 ca         1 TI7      -0.124000
     12 C6          -3.7650     0.6360    -1.1070 ca         1 TI7      -0.145000
     13 C7          -4.2860    -0.4680    -0.4480 ca         1 TI7      -0.145000
     14 C8          -3.4740    -1.2060     0.4010 ca         1 TI7      -0.140000
     15 C9          -2.1350    -0.8770     0.6060 ca         1 TI7      -0.058300
     16 O1           2.9600    -1.9130    -0.9020 o          1 TI7      -0.825800
     17 H5          -0.6430    -2.3820     1.0420 hc         1 TI7       0.045700
     18 H6          -0.6890    -1.0660     2.1980 hc         1 TI7       0.045700
     19 H7          -1.9550    -2.2930     2.2070 hc         1 TI7       0.045700
     20 H8          -0.6860     2.6250     0.7810 ha         1 TI7       0.104000
     21 H9           1.6640     3.3380     0.9980 ha         1 TI7       0.104000
     22 H10          3.4930     1.7810     0.4240 ha         1 TI7       0.145000
     23 H            0.6270    -1.2090    -0.5950 ha         1 TI7       0.148000
     24 H1          -2.0230     1.8350    -1.4320 ha         1 TI7       0.131000
     25 H2          -4.3850     1.2240    -1.7710 ha         1 TI7       0.116000
     26 H3          -5.3220    -0.7500    -0.5860 ha         1 TI7       0.113000
     27 H4          -3.8920    -2.0560     0.9280 ha         1 TI7       0.116000
@<TRIPOS>BOND
     1     1     2 1   
     2     1     3 1   
     3     1    16 1   
     4     3     7 ar  
     5     3     8 ar  
     6     4    15 1   
     7     4    17 1   
     8     4    18 1   
     9     4    19 1   
    10     5     6 ar  
    11     5     9 ar  
    12     5    20 1   
    13     6     7 ar  
    14     6    21 1   
    15     7    22 1   
    16     8     9 ar  
    17     8    23 1   
    18     9    10 1   
    19    10    11 ar  
    20    10    15 ar  
    21    11    12 ar  
    22    11    24 1   
    23    12    13 ar  
    24    12    25 1   
    25    13    14 ar  
    26    13    26 1   
    27    14    15 ar  
    28    14    27 1   
@<TRIPOS>SUBSTRUCTURE
     1 TI7         1 TEMP              0 ****  ****    0 ROOT
