@<TRIPOS>MOLECULE
TI7
   27    28     1     0     0
SMALL
No Charge or Current Charge


@<TRIPOS>ATOM
      1 C            3.3510    -0.7990    -0.4190 c          1 TI7       0.713600
      2 O            4.5070    -0.4170    -0.3010 o          1 TI7      -0.720500
      3 C1           2.2270     0.1740    -0.1010 ca         1 TI7      -0.139600
      4 C10         -1.3140    -1.7590     1.5240 c3         1 TI7      -0.048800
      5 C11          0.1310     1.9850     0.4770 ca         1 TI7      -0.124000
      6 C12          1.4670     2.3910     0.6070 ca         1 TI7      -0.151000
      7 C13          2.5090     1.4930     0.3230 ca         1 TI7      -0.079000
      8 C2           0.8730    -0.2190    -0.2260 ca         1 TI7      -0.069000
      9 C3          -0.1900     0.6700     0.0690 cp         1 TI7      -0.092000
     10 C4          -1.6180     0.2500    -0.0770 cp         1 TI7       0.002000
     11 C5          -2.4820     1.0210    -0.8930 ca         1 TI7      -0.106000
     12 C6          -3.8280     0.6650    -1.0710 ca         1 TI7      -0.127000
     13 C7          -4.3380    -0.4730    -0.4310 ca         1 TI7      -0.127000
     14 C8          -3.5050    -1.2470     0.3920 ca         1 TI7      -0.122000
     15 C9          -2.1520    -0.8970     0.5830 ca         1 TI7      -0.058300
     16 O1           3.0630    -1.9310    -0.7820 o          1 TI7      -0.720500
     17 H5          -0.7480    -2.5140     0.9670 hc         1 TI7       0.045700
     18 H6          -0.6020    -1.1540     2.0980 hc         1 TI7       0.045700
     19 H7          -1.9430    -2.2870     2.2500 hc         1 TI7       0.045700
     20 H8          -0.6660     2.6900     0.7020 ha         1 TI7       0.086000
     21 H9           1.6970     3.4040     0.9280 ha         1 TI7       0.086000
     22 H10          3.5380     1.8290     0.4300 ha         1 TI7       0.127000
     23 H            0.6340    -1.2240    -0.5660 ha         1 TI7       0.130000
     24 H1          -2.0940     1.9010    -1.4000 ha         1 TI7       0.113000
     25 H2          -4.4720     1.2680    -1.7070 ha         1 TI7       0.098000
     26 H3          -5.3800    -0.7530    -0.5680 ha         1 TI7       0.095000
     27 H4          -3.9170    -2.1210     0.8910 ha         1 TI7       0.098000
@<TRIPOS>BOND
     1     1     2 1   
     2     1     3 1   
     3     1    16 1   
     4     3     7 ar  
     5     3     8 ar  
     6     4    15 1   
     7     4    17 1   
     8     4    18 1   
     9     4    19 1   
    10     5     6 ar  
    11     5     9 ar  
    12     5    20 1   
    13     6     7 ar  
    14     6    21 1   
    15     7    22 1   
    16     8     9 ar  
    17     8    23 1   
    18     9    10 1   
    19    10    11 ar  
    20    10    15 ar  
    21    11    12 ar  
    22    11    24 1   
    23    12    13 ar  
    24    12    25 1   
    25    13    14 ar  
    26    13    26 1   
    27    14    15 ar  
    28    14    27 1   
@<TRIPOS>SUBSTRUCTURE
     1 TI7         1 TEMP              0 ****  ****    0 ROOT
