@<TRIPOS>MOLECULE
TI8
   59    62     1     0     0
SMALL
abcg2


@<TRIPOS>ATOM
      1 C          -12.8720    34.9920   -12.6210 ca         1 TI8       0.413900
      2 C1         -12.0380    33.8690   -12.6840 ca         1 TI8      -0.058600
      3 C2         -10.8080    34.0450   -13.3110 ca         1 TI8       0.142500
      4 C3          -8.8140    32.5650   -13.6460 c5         1 TI8       0.320300
      5 C4          -7.8080    32.4230   -12.5020 c5         1 TI8       0.078300
      6 C5          -6.6680    31.6700   -13.2030 c5         1 TI8       0.114300
      7 C6          -7.4170    30.7360   -14.1540 c5         1 TI8       0.163300
      8 C7          -7.5700    29.3220   -13.6190 c3         1 TI8      -0.087400
      9 C8          -8.4770    28.4420   -14.4770 c3         1 TI8      -0.076400
     10 C9          -8.6090    27.0300   -13.9510 c3         1 TI8       0.164600
     11 N          -14.0800    34.9760   -12.0070 nv         1 TI8      -1.052900
     12 O           -7.4370    33.7000   -12.0230 oh         1 TI8      -0.696000
     13 O2          -9.1500    27.1060   -12.6090 os         1 TI8      -0.468100
     14 C21        -11.2300    36.1770   -13.7370 ca         1 TI8       0.161900
     15 C11         -9.9350    26.1320   -10.6140 ce         1 TI8      -0.275200
     16 N1         -10.1770    32.8130   -13.2460 na         1 TI8      -0.328300
     17 C16        -12.7660    29.1230    -9.5840 ca         1 TI8      -0.094500
     18 O3          -9.4590    24.8770   -12.5690 o          1 TI8      -0.483000
     19 C14        -11.7100    29.7560   -11.7670 c3         1 TI8       0.287100
     20 C15        -11.7580    29.8150   -10.2550 ca         1 TI8      -0.084300
     21 C13        -11.0670    31.9600   -12.5940 cc         1 TI8       0.650700
     22 O1          -5.8740    32.5750   -13.9590 oh         1 TI8      -0.711000
     23 C20        -10.8000    30.4930    -9.5090 ca         1 TI8      -0.094500
     24 N3         -12.1890    32.5600   -12.2460 nd         1 TI8      -0.624100
     25 O4          -8.7360    31.3370   -14.3500 os         1 TI8      -0.478000
     26 C17        -12.8140    29.0920    -8.1970 ca         1 TI8      -0.103000
     27 C18        -11.8390    29.7700    -7.4770 ca         1 TI8       0.119000
     28 C19        -10.8320    30.4760    -8.1180 ca         1 TI8      -0.103000
     29 N4         -10.3530    35.1750   -13.8510 nb         1 TI8      -0.208000
     30 CL         -11.8830    29.7320    -5.7240 cl         1 TI8      -0.213000
     31 N5         -12.4350    36.1470   -13.1660 nb         1 TI8      -0.278000
     32 H1          -8.5270    33.4100   -14.2760 h2         1 TI8       0.120700
     33 H2          -8.2330    31.8090   -11.7060 h1         1 TI8       0.060700
     34 H3          -6.0480    31.1120   -12.4960 h1         1 TI8       0.059700
     35 H4          -6.9200    30.7250   -15.1260 h1         1 TI8       0.092700
     36 H5          -7.9490    29.3620   -12.5940 hc         1 TI8       0.054200
     37 H6          -6.5710    28.8800   -13.5660 hc         1 TI8       0.054200
     38 H7          -8.0790    28.3790   -15.4940 hc         1 TI8       0.061700
     39 H8          -9.4720    28.8840   -14.5590 hc         1 TI8       0.061700
     40 H9          -9.2800    26.4360   -14.5700 h1         1 TI8       0.056700
     41 H10         -7.6420    26.5250   -13.8990 h1         1 TI8       0.056700
     42 H11        -14.7050    35.7480   -12.1740 hn         1 TI8       0.493000
     43 H12        -14.5000    34.0860   -11.7930 hn         1 TI8       0.493000
     44 H13         -7.1620    33.6220   -11.1010 ho         1 TI8       0.516000
     45 H14         -9.2360    28.0970   -10.3220 ha         1 TI8       0.177000
     46 H15        -10.0430    27.2980    -8.8660 ha         1 TI8       0.177000
     47 H16        -10.9280    37.1290   -14.1590 h5         1 TI8       0.048100
     48 H17        -10.4100    25.2570   -10.1870 ha         1 TI8       0.205000
     49 H20        -12.7110    29.9360   -12.1660 h1         1 TI8       0.064200
     50 H21        -11.4160    28.7510   -12.0720 h1         1 TI8       0.064200
     51 H22         -5.7600    33.3700   -13.4150 ho         1 TI8       0.527000
     52 H23        -10.0110    31.0330   -10.0140 ha         1 TI8       0.118500
     53 H24        -13.5950    28.5490    -7.6830 ha         1 TI8       0.129500
     54 H25        -10.0820    31.0010    -7.5440 ha         1 TI8       0.129500
     55 N2         -10.7600    30.6670   -12.3690 nu         1 TI8      -0.907400
     56 C10         -9.4990    25.9590   -12.0160 c          1 TI8       0.587300
     57 H18        -13.5220    28.5930   -10.1510 ha         1 TI8       0.118500
     58 C12         -9.7270    27.2330    -9.8990 c2         1 TI8      -0.231000
     59 H19        -10.0240    30.2820   -12.9370 hn         1 TI8       0.511000
@<TRIPOS>BOND
     1     1     2 ar  
     2     1    11 1   
     3     1    31 ar  
     4     2     3 ar  
     5     2    24 1   
     6     3    16 1   
     7     3    29 ar  
     8     4     5 1   
     9     4    16 1   
    10     4    25 1   
    11     4    32 1   
    12     5     6 1   
    13     5    12 1   
    14     5    33 1   
    15     6     7 1   
    16     6    22 1   
    17     6    34 1   
    18     7     8 1   
    19     7    25 1   
    20     7    35 1   
    21     8     9 1   
    22     8    36 1   
    23     8    37 1   
    24     9    10 1   
    25     9    38 1   
    26     9    39 1   
    27    10    13 1   
    28    10    40 1   
    29    10    41 1   
    30    11    42 1   
    31    11    43 1   
    32    12    44 1   
    33    13    56 1   
    34    14    29 ar  
    35    14    31 ar  
    36    14    47 1   
    37    15    48 1   
    38    15    56 1   
    39    15    58 2   
    40    16    21 1   
    41    17    20 ar  
    42    17    26 ar  
    43    17    57 1   
    44    18    56 2   
    45    19    20 1   
    46    19    49 1   
    47    19    50 1   
    48    19    55 1   
    49    20    23 ar  
    50    21    24 2   
    51    21    55 1   
    52    22    51 1   
    53    23    28 ar  
    54    23    52 1   
    55    26    27 ar  
    56    26    53 1   
    57    27    28 ar  
    58    27    30 1   
    59    28    54 1   
    60    45    58 1   
    61    46    58 1   
    62    55    59 1   
@<TRIPOS>SUBSTRUCTURE
     1 TI8         1 TEMP              0 ****  ****    0 ROOT
