@<TRIPOS>MOLECULE
TI8
   59    62     1     0     0
SMALL
No Charge or Current Charge


@<TRIPOS>ATOM
      1 C          -12.9520    34.9690   -12.6820 ca         1 TI8       0.413900
      2 C1         -12.0590    33.8760   -12.7120 ca         1 TI8      -0.058600
      3 C2         -10.8460    34.0490   -13.3370 ca         1 TI8       0.142500
      4 C3          -8.8010    32.5830   -13.5400 c5         1 TI8       0.320300
      5 C4          -7.8200    32.3350   -12.3490 c5         1 TI8       0.078300
      6 C5          -6.6380    31.7090   -13.1390 c5         1 TI8       0.114300
      7 C6          -7.4110    30.7780   -14.1420 c5         1 TI8       0.163300
      8 C7          -7.6050    29.3270   -13.6320 c3         1 TI8      -0.087400
      9 C8          -8.4820    28.4380   -14.5520 c3         1 TI8      -0.076400
     10 C9          -8.5300    26.9490   -14.1460 c3         1 TI8       0.164600
     11 N          -14.1800    34.9010   -12.0940 nv         1 TI8      -1.052900
     12 O           -7.4090    33.5290   -11.6510 oh         1 TI8      -0.696000
     13 O2          -9.0070    26.8590   -12.7910 os         1 TI8      -0.468100
     14 C21        -11.4080    36.2090   -13.8340 ca         1 TI8       0.161900
     15 C11         -9.6240    25.6520   -10.8350 ce         1 TI8      -0.275200
     16 N1         -10.1970    32.8530   -13.2150 na         1 TI8      -0.328300
     17 C16        -12.9300    29.8140    -9.4620 ca         1 TI8      -0.094500
     18 O3          -9.0890    24.5680   -12.8960 o          1 TI8      -0.483000
     19 C14        -11.6420    29.7230   -11.6540 c3         1 TI8       0.287100
     20 C15        -11.6950    29.9090   -10.1370 ca         1 TI8      -0.084300
     21 C13        -11.0530    32.0100   -12.5240 cc         1 TI8       0.650700
     22 O1          -5.8920    32.7470   -13.7880 oh         1 TI8      -0.711000
     23 C20        -10.5220    30.1620    -9.3910 ca         1 TI8      -0.094500
     24 N3         -12.2120    32.5830   -12.1970 nd         1 TI8      -0.624100
     25 O4          -8.7190    31.3820   -14.3360 os         1 TI8      -0.478000
     26 C17        -12.9920    29.9720    -8.0660 ca         1 TI8      -0.103000
     27 C18        -11.8210    30.2240    -7.3340 ca         1 TI8       0.119000
     28 C19        -10.5860    30.3190    -7.9950 ca         1 TI8      -0.103000
     29 N4         -10.4900    35.2160   -13.9090 nb         1 TI8      -0.208000
     30 Cl         -11.9000    30.4200    -5.5880 cl         1 TI8      -0.213000
     31 N5         -12.6290    36.1440   -13.2480 nb         1 TI8      -0.278000
     32 H1          -8.4450    33.4340   -14.1370 h2         1 TI8       0.120700
     33 H2          -8.2380    31.6030   -11.6440 h1         1 TI8       0.060700
     34 H3          -5.9810    31.1270   -12.4770 h1         1 TI8       0.059700
     35 H4          -6.8920    30.7390   -15.1100 h1         1 TI8       0.092700
     36 H5          -8.0390    29.3390   -12.6240 hc         1 TI8       0.054200
     37 H6          -6.6200    28.8560   -13.5300 hc         1 TI8       0.054200
     38 H7          -8.0990    28.5000   -15.5790 hc         1 TI8       0.061700
     39 H8          -9.5060    28.8280   -14.5790 hc         1 TI8       0.061700
     40 H9          -9.2000    26.4140   -14.8340 h1         1 TI8       0.056700
     41 H10         -7.5270    26.5110   -14.2340 h1         1 TI8       0.056700
     42 H11        -14.8750    35.6010   -12.3420 hn         1 TI8       0.493000
     43 H12        -14.5230    33.9780   -11.8400 hn         1 TI8       0.493000
     44 H13         -8.1600    33.8110   -11.0740 ho         1 TI8       0.516000
     45 H14         -9.4900    27.7610   -10.4700 ha         1 TI8       0.177000
     46 H15        -10.0260    26.7300    -9.0280 ha         1 TI8       0.177000
     47 H16        -11.1380    37.1580   -14.2940 h5         1 TI8       0.048100
     48 H17         -9.8450    24.6760   -10.4060 ha         1 TI8       0.205000
     49 H20        -12.6560    29.8040   -12.0700 h1         1 TI8       0.064200
     50 H21        -11.2850    28.7070   -11.8740 h1         1 TI8       0.064200
     51 H22         -5.9620    33.5080   -13.1580 ho         1 TI8       0.527000
     52 H23         -9.5600    30.2370    -9.8920 ha         1 TI8       0.118500
     53 H24        -13.9470    29.8990    -7.5510 ha         1 TI8       0.129500
     54 H25         -9.6800    30.5130    -7.4270 ha         1 TI8       0.129500
     55 N2         -10.7610    30.7090   -12.2910 nu         1 TI8      -0.907400
     56 C10         -9.2160    25.6090   -12.2690 c          1 TI8       0.587300
     57 H18        -13.8440    29.6180   -10.0190 ha         1 TI8       0.118500
     58 C12         -9.7220    26.7720   -10.0750 c2         1 TI8      -0.231000
     59 H19        -10.0400    30.3700   -12.9220 hn         1 TI8       0.511000
@<TRIPOS>BOND
     1     1     2 ar  
     2     1    11 1   
     3     1    31 ar  
     4     2     3 ar  
     5     2    24 1   
     6     3    16 1   
     7     3    29 ar  
     8     4     5 1   
     9     4    16 1   
    10     4    25 1   
    11     4    32 1   
    12     5     6 1   
    13     5    12 1   
    14     5    33 1   
    15     6     7 1   
    16     6    22 1   
    17     6    34 1   
    18     7     8 1   
    19     7    25 1   
    20     7    35 1   
    21     8     9 1   
    22     8    36 1   
    23     8    37 1   
    24     9    10 1   
    25     9    38 1   
    26     9    39 1   
    27    10    13 1   
    28    10    40 1   
    29    10    41 1   
    30    11    42 1   
    31    11    43 1   
    32    12    44 1   
    33    13    56 1   
    34    14    29 ar  
    35    14    31 ar  
    36    14    47 1   
    37    15    48 1   
    38    15    56 1   
    39    15    58 2   
    40    16    21 1   
    41    17    20 ar  
    42    17    26 ar  
    43    17    57 1   
    44    18    56 2   
    45    19    20 1   
    46    19    49 1   
    47    19    50 1   
    48    19    55 1   
    49    20    23 ar  
    50    21    24 2   
    51    21    55 1   
    52    22    51 1   
    53    23    28 ar  
    54    23    52 1   
    55    26    27 ar  
    56    26    53 1   
    57    27    28 ar  
    58    27    30 1   
    59    28    54 1   
    60    45    58 1   
    61    46    58 1   
    62    55    59 1   
@<TRIPOS>SUBSTRUCTURE
     1 TI8         1 TEMP              0 ****  ****    0 ROOT
