@<TRIPOS>MOLECULE
TI9
   25    26     1     0     0
SMALL
abcg2


@<TRIPOS>ATOM
      1 C13         -2.9880    -1.0130     0.7290 c5         1 TI9      -0.072400
      2 C12         -4.3700    -0.8960     0.0570 c5         1 TI9      -0.080400
      3 C11         -4.3370     0.4560    -0.6650 c5         1 TI9       0.148800
      4 N10         -2.9150     0.6890    -0.8800 n7         1 TI9      -0.847400
      5 C9          -2.2890     0.3160     0.3820 c5         1 TI9       0.243600
      6 C8          -0.8400     0.2010     0.2630 c1         1 TI9      -0.096100
      7 C7           0.3580     0.1000     0.1850 cg         1 TI9      -0.120000
      8 C5           1.7730    -0.0170     0.0790 ca         1 TI9      -0.017000
      9 C6           2.3730    -1.0690    -0.6160 ca         1 TI9      -0.054000
     10 C1           3.7530    -1.1250    -0.6820 ca         1 TI9      -0.166000
     11 C4           2.6140     0.9280     0.6750 ca         1 TI9       0.354900
     12 N3           3.9340     0.8750     0.6130 nb         1 TI9      -0.667000
     13 C2           4.4910    -0.1320    -0.0530 ca         1 TI9       0.339900
     14 H131        -3.0430    -1.1500     1.8070 hc         1 TI9       0.054200
     15 H132        -2.4250    -1.8520     0.3190 hc         1 TI9       0.054200
     16 H121        -4.5180    -1.7100    -0.6520 hc         1 TI9       0.049200
     17 H122        -5.1850    -0.9390     0.7770 hc         1 TI9       0.049200
     18 H112        -4.8760     0.4440    -1.6130 h1         1 TI9       0.037700
     19 H111        -4.7980     1.2280    -0.0330 h1         1 TI9       0.037700
     20 HN10        -2.7250     1.6570    -1.1080 hn         1 TI9       0.417000
     21 H14         -2.5030     1.0440     1.1810 h1         1 TI9       0.039700
     22 H6           1.7640    -1.8250    -1.0930 ha         1 TI9       0.127000
     23 H1           4.2540    -1.9230    -1.2110 ha         1 TI9       0.125000
     24 H4           2.1820     1.7580     1.2220 h4         1 TI9       0.024100
     25 H2           5.5740    -0.1500    -0.0890 h4         1 TI9       0.020100
@<TRIPOS>BOND
     1     1     2 1   
     2     1     5 1   
     3     1    14 1   
     4     1    15 1   
     5     2     3 1   
     6     2    16 1   
     7     2    17 1   
     8     3     4 1   
     9     3    18 1   
    10     3    19 1   
    11     4     5 1   
    12     4    20 1   
    13     5     6 1   
    14     5    21 1   
    15     6     7 3   
    16     7     8 1   
    17     8     9 ar  
    18     8    11 ar  
    19     9    10 ar  
    20     9    22 1   
    21    10    13 ar  
    22    10    23 1   
    23    11    12 ar  
    24    11    24 1   
    25    12    13 ar  
    26    13    25 1   
@<TRIPOS>SUBSTRUCTURE
     1 TI9         1 TEMP              0 ****  ****    0 ROOT
