@<TRIPOS>MOLECULE
TI9
   25    26     1     0     0
SMALL
No Charge or Current Charge


@<TRIPOS>ATOM
      1 C13         -2.9880    -1.2100    -0.3140 c5         1 TI9      -0.072400
      2 C12         -4.4760    -0.7460    -0.3070 c5         1 TI9      -0.080400
      3 C11         -4.3880     0.7950    -0.0760 c5         1 TI9       0.148800
      4 N10         -2.9440     1.1120    -0.1270 n7         1 TI9      -0.847400
      5 C9          -2.3030    -0.0670     0.4710 c5         1 TI9       0.243600
      6 C8          -0.8350    -0.0370     0.3160 c1         1 TI9      -0.096100
      7 C7           0.3730    -0.0530     0.1870 cg         1 TI9      -0.120000
      8 C5           1.7980    -0.0740     0.0240 ca         1 TI9      -0.017000
      9 C6           2.5600    -1.1390     0.5360 ca         1 TI9      -0.054000
     10 C1           3.9530    -1.1110     0.3490 ca         1 TI9      -0.166000
     11 C4           2.4650     0.9690    -0.6530 ca         1 TI9       0.354900
     12 N3           3.8100     0.9990    -0.8360 nb         1 TI9      -0.667000
     13 C2           4.5340    -0.0310    -0.3380 ca         1 TI9       0.339900
     14 H131        -2.8480    -2.1880     0.1590 hc         1 TI9       0.054200
     15 H132        -2.6040    -1.2800    -1.3390 hc         1 TI9       0.054200
     16 H121        -4.9790    -0.9920    -1.2490 hc         1 TI9       0.049200
     17 H122        -5.0450    -1.2260     0.4970 hc         1 TI9       0.049200
     18 H112        -4.9510     1.3640    -0.8290 h1         1 TI9       0.037700
     19 H111        -4.7980     1.0510     0.9110 h1         1 TI9       0.037700
     20 HN10        -2.7370     1.9510     0.4300 hn         1 TI9       0.417000
     21 H14         -2.5240    -0.1340     1.5460 h1         1 TI9       0.039700
     22 H6           2.0870    -1.9650     1.0650 ha         1 TI9       0.127000
     23 H1           4.5800    -1.9130     0.7280 ha         1 TI9       0.125000
     24 H4           1.9070     1.8110    -1.0640 h4         1 TI9       0.024100
     25 H2           5.6110     0.0110    -0.4960 h4         1 TI9       0.020100
@<TRIPOS>BOND
     1     1     2 1   
     2     1     5 1   
     3     1    14 1   
     4     1    15 1   
     5     2     3 1   
     6     2    16 1   
     7     2    17 1   
     8     3     4 1   
     9     3    18 1   
    10     3    19 1   
    11     4     5 1   
    12     4    20 1   
    13     5     6 1   
    14     5    21 1   
    15     6     7 3   
    16     7     8 1   
    17     8     9 ar  
    18     8    11 ar  
    19     9    10 ar  
    20     9    22 1   
    21    10    13 ar  
    22    10    23 1   
    23    11    12 ar  
    24    11    24 1   
    25    12    13 ar  
    26    13    25 1   
@<TRIPOS>SUBSTRUCTURE
     1 TI9         1 TEMP              0 ****  ****    0 ROOT
