@<TRIPOS>MOLECULE
TIA
   28    29     1     0     0
SMALL
bcc


@<TRIPOS>ATOM
      1 S1           0.3310     1.7530    -0.8340 ss         1 TIA      -0.094300
      2 C2           0.2150     0.0280    -0.8130 cc         1 TIA       0.390700
      3 N3           1.2840    -0.5740    -0.4170 nd         1 TIA      -0.651000
      4 C4           2.2650     0.3210    -0.0960 cd         1 TIA       0.277800
      5 C5           1.9330     1.6300    -0.2590 cc         1 TIA      -0.154400
      6 C6           3.5880    -0.1400     0.4020 c          1 TIA       0.604600
      7 O6           4.4640     0.6620     0.6980 o          1 TIA      -0.607100
      8 N6           3.7160    -1.4680     0.4930 nt         1 TIA      -0.658000
      9 C1          -1.0560    -0.6440    -1.2370 c5         1 TIA       0.069800
     10 C7          -1.6660    -1.4860    -0.1060 c5         1 TIA       0.132100
     11 O2          -2.5360    -2.4680    -0.5950 oh         1 TIA      -0.564800
     12 C3          -2.4970    -0.4180     0.5940 c5         1 TIA       0.122100
     13 O3          -3.4620    -0.9680     1.4390 oh         1 TIA      -0.557800
     14 C8          -3.0610     0.3670    -0.5960 c5         1 TIA       0.102100
     15 O4          -2.0070     0.3500    -1.5630 os         1 TIA      -0.402600
     16 C9          -3.4590     1.7900    -0.2800 c3         1 TIA      -0.099100
     17 H5           2.5390     2.5010    -0.0700 h4         1 TIA       0.199000
     18 HN61         2.9630    -2.0820     0.2330 hn         1 TIA       0.324500
     19 HN62         4.5750    -1.8770     0.8210 hn         1 TIA       0.324500
     20 H1          -0.8440    -1.2640    -2.1160 h1         1 TIA       0.094700
     21 H2          -0.8880    -1.9110     0.5380 h1         1 TIA       0.073700
     22 HO2         -2.0140    -3.1530    -1.0260 ho         1 TIA       0.407000
     23 H3          -1.8050     0.2330     1.1490 h1         1 TIA       0.042700
     24 HO3         -3.7680    -0.2790     2.0360 ho         1 TIA       0.407000
     25 H4          -3.9280    -0.1730    -0.9960 h1         1 TIA       0.080700
     26 H5'1        -2.6290     2.3500     0.1530 hc         1 TIA       0.046033
     27 H5'2        -3.8060     2.3160    -1.1690 hc         1 TIA       0.046033
     28 H5'3        -4.2820     1.7930     0.4380 hc         1 TIA       0.046033
@<TRIPOS>BOND
     1     1     2 1   
     2     1     5 1   
     3     2     3 2   
     4     2     9 1   
     5     3     4 1   
     6     4     5 2   
     7     4     6 1   
     8     5    17 1   
     9     6     7 2   
    10     6     8 1   
    11     8    18 1   
    12     8    19 1   
    13     9    10 1   
    14     9    15 1   
    15     9    20 1   
    16    10    11 1   
    17    10    12 1   
    18    10    21 1   
    19    11    22 1   
    20    12    13 1   
    21    12    14 1   
    22    12    23 1   
    23    13    24 1   
    24    14    15 1   
    25    14    16 1   
    26    14    25 1   
    27    16    26 1   
    28    16    27 1   
    29    16    28 1   
@<TRIPOS>SUBSTRUCTURE
     1 TIA         1 TEMP              0 ****  ****    0 ROOT
