@<TRIPOS>MOLECULE
TIA
   28    29     1     0     0
SMALL
No Charge or Current Charge


@<TRIPOS>ATOM
      1 S1           0.3990     1.7740    -0.2970 ss         1 TIA       0.050600
      2 C2           0.2700     0.0670    -0.6540 cc         1 TIA       0.390700
      3 N3           1.3810    -0.6430    -0.4740 nd         1 TIA      -0.651000
      4 C4           2.4240     0.1790    -0.0270 cd         1 TIA       0.212500
      5 C5           2.0640     1.5020     0.1220 cc         1 TIA      -0.216000
      6 C6           3.8360    -0.2610     0.2860 c          1 TIA       0.537600
      7 O6           4.7330     0.4730     0.6770 o          1 TIA      -0.607100
      8 N6           4.0790    -1.5820     0.1050 nt         1 TIA      -0.591000
      9 C1          -1.0390    -0.5480    -1.1310 c5         1 TIA       0.093000
     10 C7          -1.7120    -1.3850     0.0140 c5         1 TIA       0.155300
     11 O2          -2.4820    -2.4860    -0.5190 oh         1 TIA      -0.687000
     12 C3          -2.6010    -0.2600     0.6510 c5         1 TIA       0.145300
     13 O3          -3.5990    -0.7470     1.5670 oh         1 TIA      -0.680000
     14 C8          -3.1710     0.3630    -0.6580 c5         1 TIA       0.125300
     15 O4          -2.0130     0.4730    -1.5160 os         1 TIA      -0.449000
     16 C9          -3.8270     1.7500    -0.5060 c3         1 TIA      -0.099100
     17 H5           2.6760     2.3320     0.4500 h4         1 TIA       0.181000
     18 HN61         3.3310    -2.1790    -0.2200 hn         1 TIA       0.324500
     19 HN62         4.9980    -1.9540     0.2920 hn         1 TIA       0.324500
     20 H1          -0.8260    -1.1780    -2.0040 h1         1 TIA       0.094700
     21 H2          -0.9700    -1.7510     0.7390 h1         1 TIA       0.073700
     22 HO2         -1.8670    -3.2480    -0.6250 ho         1 TIA       0.506000
     23 H3          -1.9630     0.4720     1.1660 h1         1 TIA       0.042700
     24 HO3         -4.0750     0.0380     1.9240 ho         1 TIA       0.506000
     25 H4          -3.8920    -0.3200    -1.1310 h1         1 TIA       0.080700
     26 H5'1        -3.1340     2.4700    -0.0570 hc         1 TIA       0.046033
     27 H5'2        -4.1390     2.1430    -1.4810 hc         1 TIA       0.046033
     28 H5'3        -4.7190     1.6970     0.1300 hc         1 TIA       0.046033
@<TRIPOS>BOND
     1     1     2 1   
     2     1     5 1   
     3     2     3 2   
     4     2     9 1   
     5     3     4 1   
     6     4     5 2   
     7     4     6 1   
     8     5    17 1   
     9     6     7 2   
    10     6     8 1   
    11     8    18 1   
    12     8    19 1   
    13     9    10 1   
    14     9    15 1   
    15     9    20 1   
    16    10    11 1   
    17    10    12 1   
    18    10    21 1   
    19    11    22 1   
    20    12    13 1   
    21    12    14 1   
    22    12    23 1   
    23    13    24 1   
    24    14    15 1   
    25    14    16 1   
    26    14    25 1   
    27    16    26 1   
    28    16    27 1   
    29    16    28 1   
@<TRIPOS>SUBSTRUCTURE
     1 TIA         1 TEMP              0 ****  ****    0 ROOT
