@<TRIPOS>MOLECULE
TIC
   31    33     1     0     0
SMALL
No Charge or Current Charge


@<TRIPOS>ATOM
      1 C1           1.1260    -1.9360    -1.2070 c6         1 TIC       0.170800
      2 N1           0.1020    -1.1380    -0.4680 n3         1 TIC      -0.717600
      3 S1           4.4440    -0.1030     0.6520 ss         1 TIC       0.186000
      4 Cl1         -2.5730     1.4050    -2.0250 cl         1 TIC      -0.214000
      5 C2           0.5050     0.3010    -0.3480 c6         1 TIC       0.229100
      6 C3           2.4950    -1.9650    -0.4690 c6         1 TIC       0.002900
      7 C4           1.9430     0.4260     0.1130 cc         1 TIC      -0.109300
      8 C5           2.8550    -0.5900     0.0400 cd         1 TIC      -0.198300
      9 C6          -1.2610    -1.3050    -1.0300 c3         1 TIC       0.213100
     10 C7          -2.3520    -0.6620    -0.1730 ca         1 TIC      -0.076300
     11 C8           2.4840     1.6240     0.6430 cc         1 TIC      -0.119000
     12 C9           3.8100     1.5230     0.9860 cd         1 TIC      -0.238000
     13 C10         -2.9940     0.5440    -0.5430 ca         1 TIC       0.126000
     14 C11         -2.7270    -1.2950     1.0310 ca         1 TIC      -0.079000
     15 C12         -3.9910     1.0950     0.2810 ca         1 TIC      -0.109000
     16 C13         -3.7250    -0.7400     1.8510 ca         1 TIC      -0.112000
     17 C14         -4.3590     0.4550     1.4760 ca         1 TIC      -0.100000
     18 H1           0.7850    -2.9720    -1.3460 h1         1 TIC       0.034200
     19 H1A          1.2740    -1.5110    -2.2110 h1         1 TIC       0.034200
     20 H2           0.3950     0.8060    -1.3190 h1         1 TIC       0.048700
     21 H2A         -0.1550     0.8240     0.3590 h1         1 TIC       0.048700
     22 H3           2.4330    -2.6660     0.3750 hc         1 TIC       0.056700
     23 H3A          3.2710    -2.3530    -1.1410 hc         1 TIC       0.056700
     24 H6          -1.2970    -0.9150    -2.0560 h1         1 TIC       0.046700
     25 H6A         -1.4930    -2.3760    -1.1060 h1         1 TIC       0.046700
     26 H8           1.8930     2.5280     0.7610 ha         1 TIC       0.133000
     27 H9           4.4550     2.2840     1.4080 h4         1 TIC       0.149000
     28 H11         -2.2380    -2.2190     1.3310 ha         1 TIC       0.127000
     29 H12         -4.4790     2.0220    -0.0090 ha         1 TIC       0.128000
     30 H13         -4.0050    -1.2370     2.7770 ha         1 TIC       0.118000
     31 H14         -5.1310     0.8850     2.1100 ha         1 TIC       0.117000
@<TRIPOS>BOND
     1     1     2 1   
     2     1     6 1   
     3     1    18 1   
     4     1    19 1   
     5     2     5 1   
     6     2     9 1   
     7     3     8 1   
     8     3    12 1   
     9     4    13 1   
    10     5     7 1   
    11     5    20 1   
    12     5    21 1   
    13     6     8 1   
    14     6    22 1   
    15     6    23 1   
    16     7     8 2   
    17     7    11 1   
    18     9    10 1   
    19     9    24 1   
    20     9    25 1   
    21    10    13 ar  
    22    10    14 ar  
    23    11    12 2   
    24    11    26 1   
    25    12    27 1   
    26    13    15 ar  
    27    14    16 ar  
    28    14    28 1   
    29    15    17 ar  
    30    15    29 1   
    31    16    17 ar  
    32    16    30 1   
    33    17    31 1   
@<TRIPOS>SUBSTRUCTURE
     1 TIC         1 TEMP              0 ****  ****    0 ROOT
