@<TRIPOS>MOLECULE
TIC
   31    33     1     0     0
SMALL
abcg2


@<TRIPOS>ATOM
      1 C1           1.0900    -1.8760    -1.1890 c6         1 TIC       0.170800
      2 N1           0.0850    -1.0790    -0.5060 n3         1 TIC      -0.717600
      3 S1           4.2580    -0.1980     0.7860 ss         1 TIC       0.186000
      4 CL1         -2.7920     1.3460    -2.0680 cl         1 TIC      -0.214000
      5 C2           0.4820     0.3150    -0.4090 c6         1 TIC       0.229100
      6 C3           2.3470    -1.9940    -0.3340 c6         1 TIC       0.002900
      7 C4           1.8790     0.4360     0.1150 cc         1 TIC      -0.109300
      8 C5           2.7210    -0.6320     0.1440 cd         1 TIC      -0.198300
      9 C6          -1.2230    -1.2120    -1.1210 c3         1 TIC       0.213100
     10 C7          -2.2960    -0.6200    -0.2450 ca         1 TIC      -0.076300
     11 C8           2.4850     1.6280     0.6100 cc         1 TIC      -0.119000
     12 C9           3.7690     1.4340     1.0100 cd         1 TIC      -0.238000
     13 C10         -3.0530     0.5000    -0.5700 ca         1 TIC       0.126000
     14 C11         -2.5410    -1.2180     0.9920 ca         1 TIC      -0.079000
     15 C12         -4.0280     1.0020     0.2840 ca         1 TIC      -0.109000
     16 C13         -3.5050    -0.7330     1.8590 ca         1 TIC      -0.112000
     17 C14         -4.2530     0.3820     1.5020 ca         1 TIC      -0.100000
     18 H1           0.6820    -2.8720    -1.3690 h1         1 TIC       0.034200
     19 H1A          1.3500    -1.4530    -2.1730 h1         1 TIC       0.034200
     20 H2           0.4150     0.8260    -1.3850 h1         1 TIC       0.048700
     21 H2A         -0.2070     0.8400     0.2580 h1         1 TIC       0.048700
     22 H3           2.1630    -2.6640     0.5100 hc         1 TIC       0.056700
     23 H3A          3.1490    -2.4450    -0.9240 hc         1 TIC       0.056700
     24 H6          -1.2520    -0.7780    -2.1300 h1         1 TIC       0.046700
     25 H6A         -1.4310    -2.2790    -1.2390 h1         1 TIC       0.046700
     26 H8           1.9820     2.5850     0.6660 ha         1 TIC       0.133000
     27 H9           4.4550     2.1590     1.4210 h4         1 TIC       0.149000
     28 H11         -1.9560    -2.0860     1.2700 ha         1 TIC       0.127000
     29 H12         -4.6000     1.8750     0.0010 ha         1 TIC       0.128000
     30 H13         -3.6730    -1.2210     2.8100 ha         1 TIC       0.118000
     31 H14         -5.0110     0.7740     2.1670 ha         1 TIC       0.117000
@<TRIPOS>BOND
     1     1     2 1   
     2     1     6 1   
     3     1    18 1   
     4     1    19 1   
     5     2     5 1   
     6     2     9 1   
     7     3     8 1   
     8     3    12 1   
     9     4    13 1   
    10     5     7 1   
    11     5    20 1   
    12     5    21 1   
    13     6     8 1   
    14     6    22 1   
    15     6    23 1   
    16     7     8 2   
    17     7    11 1   
    18     9    10 1   
    19     9    24 1   
    20     9    25 1   
    21    10    13 ar  
    22    10    14 ar  
    23    11    12 2   
    24    11    26 1   
    25    12    27 1   
    26    13    15 ar  
    27    14    16 ar  
    28    14    28 1   
    29    15    17 ar  
    30    15    29 1   
    31    16    17 ar  
    32    16    30 1   
    33    17    31 1   
@<TRIPOS>SUBSTRUCTURE
     1 TIC         1 TEMP              0 ****  ****    0 ROOT
