@<TRIPOS>MOLECULE
TID
   21    22     1     0     0
SMALL
No Charge or Current Charge


@<TRIPOS>ATOM
      1 C1           0.7210     1.3380    -0.0350 ca         1 TID      -0.103000
      2 C2          -0.1030     0.1900     0.0010 ca         1 TID      -0.192500
      3 C3           0.5230    -1.0780     0.0130 ca         1 TID      -0.103000
      4 C4           1.9240    -1.1920    -0.0100 ca         1 TID      -0.099000
      5 C5           2.7470    -0.0440    -0.0470 ca         1 TID      -0.105600
      6 C6           2.1220     1.2230    -0.0590 ca         1 TID      -0.099000
      7 C13          4.2640    -0.1690    -0.0720 c          1 TID       0.710600
      8 O15          4.7610    -1.2870    -0.0600 o          1 TID      -0.714500
      9 O17          4.9360     0.8530    -0.1040 o          1 TID      -0.714500
     10 C19         -1.5740     0.3200     0.0260 cc         1 TID       0.526900
     11 N21         -2.2060     1.4930     0.0160 nd         1 TID      -0.330000
     12 N22         -3.5820     1.3440     0.0450 nd         1 TID      -0.412000
     13 C23         -3.9110     0.0740     0.0770 cc         1 TID       0.632300
     14 S24         -2.6310    -1.0700     0.0680 ss         1 TID      -0.360800
     15 N30         -5.1960    -0.3120     0.1030 nv         1 TID      -1.049900
     16 H1           0.2830     2.3330    -0.0460 ha         1 TID       0.100500
     17 H3          -0.0660    -1.9910     0.0410 ha         1 TID       0.100500
     18 H4           2.3700    -2.1840     0.0000 ha         1 TID       0.132000
     19 H6           2.7230     2.1290    -0.0870 ha         1 TID       0.132000
     20 HN30        -5.8800     0.3890    -0.1600 hn         1 TID       0.473500
     21 HN3A        -5.3990    -1.2700    -0.1610 hn         1 TID       0.473500
@<TRIPOS>BOND
     1     1     2 ar  
     2     1     6 ar  
     3     1    16 1   
     4     2     3 ar  
     5     2    10 1   
     6     3     4 ar  
     7     3    17 1   
     8     4     5 ar  
     9     4    18 1   
    10     5     6 ar  
    11     5     7 1   
    12     6    19 1   
    13     7     8 1   
    14     7     9 1   
    15    10    11 2   
    16    10    14 1   
    17    11    12 1   
    18    12    13 2   
    19    13    14 1   
    20    13    15 1   
    21    15    20 1   
    22    15    21 1   
@<TRIPOS>SUBSTRUCTURE
     1 TID         1 TEMP              0 ****  ****    0 ROOT
