@<TRIPOS>MOLECULE
TID
   21    22     1     0     0
SMALL
abcg2


@<TRIPOS>ATOM
      1 C1           0.7230     1.3200    -0.0330 ca         1 TID      -0.103000
      2 C2          -0.0780     0.1750    -0.0020 ca         1 TID      -0.192500
      3 C3           0.5410    -1.0740     0.0110 ca         1 TID      -0.103000
      4 C4           1.9230    -1.1760    -0.0100 ca         1 TID      -0.099000
      5 C5           2.7260    -0.0400    -0.0420 ca         1 TID      -0.105600
      6 C6           2.1010     1.2070    -0.0520 ca         1 TID      -0.099000
      7 C13          4.2450    -0.1540    -0.0680 c          1 TID       0.710600
      8 O15          4.7160    -1.3070    -0.0620 o          1 TID      -0.714500
      9 O17          4.8810     0.9160    -0.0930 o          1 TID      -0.714500
     10 C19         -1.5310     0.3080     0.0150 cc         1 TID       0.526900
     11 N21         -2.1660     1.4290    -0.0070 nd         1 TID      -0.330000
     12 N22         -3.5070     1.3200     0.0050 nd         1 TID      -0.412000
     13 C23         -3.9090     0.0820     0.0440 cc         1 TID       0.632300
     14 S24         -2.6080    -1.0670     0.0640 ss         1 TID      -0.360800
     15 N30         -5.1990    -0.2960     0.1200 nv         1 TID      -1.049900
     16 H1           0.2620     2.2990    -0.0420 ha         1 TID       0.100500
     17 H3          -0.0490    -1.9830     0.0370 ha         1 TID       0.100500
     18 H4           2.3830    -2.1540    -0.0020 ha         1 TID       0.132000
     19 H6           2.7080     2.1030    -0.0740 ha         1 TID       0.132000
     20 HN30        -5.8820     0.4100    -0.1040 hn         1 TID       0.473500
     21 HN3A        -5.4540    -1.2290    -0.1550 hn         1 TID       0.473500
@<TRIPOS>BOND
     1     1     2 ar  
     2     1     6 ar  
     3     1    16 1   
     4     2     3 ar  
     5     2    10 1   
     6     3     4 ar  
     7     3    17 1   
     8     4     5 ar  
     9     4    18 1   
    10     5     6 ar  
    11     5     7 1   
    12     6    19 1   
    13     7     8 1   
    14     7     9 1   
    15    10    11 2   
    16    10    14 1   
    17    11    12 1   
    18    12    13 2   
    19    13    14 1   
    20    13    15 1   
    21    15    20 1   
    22    15    21 1   
@<TRIPOS>SUBSTRUCTURE
     1 TID         1 TEMP              0 ****  ****    0 ROOT
