@<TRIPOS>MOLECULE
TIE
   62    66     1     0     0
SMALL
No Charge or Current Charge


@<TRIPOS>ATOM
      1 C10         14.5970     0.5500    -5.4040 cc         1 TIE      -0.115100
      2 C9          15.9600     2.7670    -8.5530 c3         1 TIE       0.154300
      3 C8          12.7450    -0.7410    -5.4080 ca         1 TIE       0.010000
      4 N2          13.5180    -2.3860    -7.4980 nb         1 TIE      -0.326000
      5 C7          13.9710    -0.5730    -6.0320 ca         1 TIE      -0.290000
      6 C6          14.3620    -1.4120    -7.0960 ca         1 TIE       0.464900
      7 C4          15.7480    -1.9560    -9.1270 c6         1 TIE       0.221800
      8 C3          16.8610    -1.2980    -9.9730 c6         1 TIE      -0.096400
      9 C2          16.8640    -1.2000    -7.0370 c6         1 TIE       0.234800
     10 C1          18.1850    -1.1860    -9.1810 c6         1 TIE      -0.075400
     11 C11         12.3450    -2.4960    -6.8340 ca         1 TIE       0.169900
     12 C12         14.6200     3.0510    -7.8900 ca         1 TIE      -0.131300
     13 C           17.9940    -0.4630    -7.8140 c6         1 TIE      -0.158700
     14 N           15.5830    -1.2740    -7.8050 nh         1 TIE      -0.790300
     15 C13         13.8850     2.0310    -3.5440 ca         1 TIE      -0.003200
     16 C14         14.4470     4.2160    -7.1170 ca         1 TIE      -0.084000
     17 C15         13.5420     2.1540    -8.0310 ca         1 TIE      -0.084000
     18 C16         14.7570     3.0980    -3.8590 ca         1 TIE      -0.104000
     19 C17         13.1950     2.0720    -2.3090 ca         1 TIE      -0.104000
     20 C18         13.2310     4.4580    -6.4570 ca         1 TIE      -0.111500
     21 C19         12.3280     2.3950    -7.3680 ca         1 TIE      -0.111500
     22 C20         14.9210     4.1790    -2.9760 ca         1 TIE      -0.104000
     23 C21         13.3650     3.1530    -1.4250 ca         1 TIE      -0.104000
     24 C22         14.2270     4.2120    -1.7550 ca         1 TIE      -0.075300
     25 C23         12.1710     3.5360    -6.5630 ca         1 TIE      -0.074000
     26 C24         14.4000     5.3870    -0.8040 c3         1 TIE      -0.047800
     27 C25         11.0640     4.7670    -4.2020 c3         1 TIE       0.023900
     28 N3          13.6960     0.9540    -4.4320 na         1 TIE       0.225700
     29 N4          12.5290     0.1950    -4.3910 nc         1 TIE      -0.273400
     30 N5          11.9160    -1.7230    -5.8100 nb         1 TIE      -0.173000
     31 H1          15.5350     1.0640    -5.5630 h4         1 TIE       0.258000
     32 H2          16.7050     3.4990    -8.2140 h1         1 TIE       0.061200
     33 H3          15.8570     2.8720    -9.6410 h1         1 TIE       0.061200
     34 H4          14.8140    -1.9140    -9.7080 h1         1 TIE       0.067700
     35 H5          15.9910    -3.0180    -8.9740 h1         1 TIE       0.067700
     36 H6          15.7660     0.6440    -8.2890 hn         1 TIE       0.317500
     37 H7          16.5330    -0.3070   -10.3130 hc         1 TIE       0.049200
     38 H8          17.0240    -1.8900   -10.8840 hc         1 TIE       0.049200
     39 H9          17.2050    -2.2220    -6.8120 h1         1 TIE       0.062700
     40 H10         16.7290    -0.7110    -6.0650 h1         1 TIE       0.062700
     41 H11         18.5860    -2.1940    -9.0070 hc         1 TIE       0.049700
     42 H12         18.9370    -0.6590    -9.7850 hc         1 TIE       0.049700
     43 H13         11.6720    -3.2870    -7.1600 h5         1 TIE       0.041100
     44 H14         18.9360    -0.5450    -7.2560 hc         1 TIE       0.083700
     45 H15         15.2630     4.9270    -7.0110 ha         1 TIE       0.108500
     46 H16         13.6510     1.2550    -8.6350 ha         1 TIE       0.108500
     47 H17         15.3040     3.1120    -4.7960 ha         1 TIE       0.143500
     48 H18         12.5220     1.2670    -2.0230 ha         1 TIE       0.143500
     49 H19         13.1290     5.3590    -5.8600 ha         1 TIE       0.122500
     50 H20         11.5140     1.6800    -7.4600 ha         1 TIE       0.122500
     51 H21         15.5890     4.9940    -3.2450 ha         1 TIE       0.118500
     52 H22         12.8210     3.1650    -0.4830 ha         1 TIE       0.118500
     53 H23         13.6710     6.1760    -1.0230 hc         1 TIE       0.045367
     54 H24         14.2610     5.0810     0.2400 hc         1 TIE       0.045367
     55 H25         15.4020     5.8250    -0.8880 hc         1 TIE       0.045367
     56 H26         10.1930     4.8400    -3.5400 h1         1 TIE       0.066367
     57 H27         11.8850     4.2800    -3.6640 h1         1 TIE       0.066367
     58 H28         11.3690     5.7770    -4.5000 h1         1 TIE       0.066367
     59 C5          17.7300     1.0460    -8.0130 c          1 TIE       0.608100
     60 O           18.6140     1.8760    -7.8540 o          1 TIE      -0.640100
     61 N1          16.4310     1.4150    -8.2590 ns         1 TIE      -0.488900
     62 S           10.6210     3.7710    -5.6940 ss         1 TIE      -0.147000
@<TRIPOS>BOND
     1     1     5 2   
     2     1    28 1   
     3     1    31 1   
     4     2    12 1   
     5     2    32 1   
     6     2    33 1   
     7     2    61 1   
     8     3     5 ar  
     9     3    29 2   
    10     3    30 ar  
    11     4     6 ar  
    12     4    11 ar  
    13     5     6 ar  
    14     6    14 1   
    15     7     8 1   
    16     7    14 1   
    17     7    34 1   
    18     7    35 1   
    19     8    10 1   
    20     8    37 1   
    21     8    38 1   
    22     9    13 1   
    23     9    14 1   
    24     9    39 1   
    25     9    40 1   
    26    10    13 1   
    27    10    41 1   
    28    10    42 1   
    29    11    30 ar  
    30    11    43 1   
    31    12    16 ar  
    32    12    17 ar  
    33    13    44 1   
    34    13    59 1   
    35    15    18 ar  
    36    15    19 ar  
    37    15    28 1   
    38    16    20 ar  
    39    16    45 1   
    40    17    21 ar  
    41    17    46 1   
    42    18    22 ar  
    43    18    47 1   
    44    19    23 ar  
    45    19    48 1   
    46    20    25 ar  
    47    20    49 1   
    48    21    25 ar  
    49    21    50 1   
    50    22    24 ar  
    51    22    51 1   
    52    23    24 ar  
    53    23    52 1   
    54    24    26 1   
    55    25    62 1   
    56    26    53 1   
    57    26    54 1   
    58    26    55 1   
    59    27    56 1   
    60    27    57 1   
    61    27    58 1   
    62    27    62 1   
    63    28    29 1   
    64    36    61 1   
    65    59    60 2   
    66    59    61 1   
@<TRIPOS>SUBSTRUCTURE
     1 TIE         1 TEMP              0 ****  ****    0 ROOT
