@<TRIPOS>MOLECULE
TIE
   62    66     1     0     0
SMALL
abcg2


@<TRIPOS>ATOM
      1 C10         14.7640     0.6610    -5.1400 cc         1 TIE      -0.115100
      2 C9          16.1640     3.0810    -8.7030 c3         1 TIE       0.154300
      3 C8          12.7460    -0.2710    -5.2700 ca         1 TIE       0.010000
      4 N2          13.1850    -1.8390    -7.4250 nb         1 TIE      -0.326000
      5 C7          14.0570    -0.3100    -5.8400 ca         1 TIE      -0.290000
      6 C6          14.2570    -1.1900    -6.9500 ca         1 TIE       0.464900
      7 C4          15.5620    -2.1270    -8.8140 c6         1 TIE       0.221800
      8 C3          16.4120    -1.3290    -9.7990 c6         1 TIE      -0.096400
      9 C2          16.7400    -1.1600    -6.9190 c6         1 TIE       0.234800
     10 C1          17.7690    -0.9370    -9.2020 c6         1 TIE      -0.075400
     11 C11         11.9990    -1.7090    -6.8000 ca         1 TIE       0.169900
     12 C12         14.7830     3.0040    -8.0910 ca         1 TIE      -0.131300
     13 C           17.6770    -0.3160    -7.7990 c6         1 TIE      -0.158700
     14 N           15.4480    -1.3850    -7.5580 nh         1 TIE      -0.790300
     15 C13         14.1740     2.2330    -3.3260 ca         1 TIE      -0.003200
     16 C14         14.4280     3.8200    -7.0240 ca         1 TIE      -0.084000
     17 C15         13.8360     2.1000    -8.5770 ca         1 TIE      -0.084000
     18 C16         15.2220     3.1170    -3.5700 ca         1 TIE      -0.104000
     19 C17         13.3770     2.3920    -2.1970 ca         1 TIE      -0.104000
     20 C18         13.1580     3.7600    -6.4590 ca         1 TIE      -0.111500
     21 C19         12.5710     2.0240    -8.0190 ca         1 TIE      -0.111500
     22 C20         15.4670     4.1510    -2.6780 ca         1 TIE      -0.104000
     23 C21         13.6330     3.4360    -1.3200 ca         1 TIE      -0.104000
     24 C22         14.6780     4.3350    -1.5410 ca         1 TIE      -0.075300
     25 C23         12.2130     2.8650    -6.9570 ca         1 TIE      -0.074000
     26 C24         14.9250     5.4830    -0.6010 c3         1 TIE      -0.047800
     27 C25         10.5990     3.7020    -4.8190 c3         1 TIE       0.023900
     28 N3          13.9080     1.1760    -4.2340 na         1 TIE       0.225700
     29 N4          12.6670     0.6170    -4.2800 nc         1 TIE      -0.273400
     30 N5          11.6980    -1.0010    -5.7310 nb         1 TIE      -0.173000
     31 H1          15.7660     1.0340    -5.2470 h4         1 TIE       0.258000
     32 H2          16.7880     3.7580    -8.1220 h1         1 TIE       0.061200
     33 H3          16.1120     3.4650    -9.7230 h1         1 TIE       0.061200
     34 H4          14.5690    -2.3030    -9.2080 h1         1 TIE       0.067700
     35 H5          16.0270    -3.0980    -8.6080 h1         1 TIE       0.067700
     36 H6          16.7370     1.2660    -9.6380 hn         1 TIE       0.317500
     37 H7          15.8380    -0.4520   -10.1070 hc         1 TIE       0.049200
     38 H8          16.5690    -1.9290   -10.6970 hc         1 TIE       0.049200
     39 H9          17.2070    -2.1400    -6.7680 h1         1 TIE       0.062700
     40 H10         16.6130    -0.7100    -5.9430 h1         1 TIE       0.062700
     41 H11         18.3730    -1.8430    -9.1060 hc         1 TIE       0.049700
     42 H12         18.3130    -0.2770    -9.8800 hc         1 TIE       0.049700
     43 H13         11.1900    -2.2830    -7.2420 h5         1 TIE       0.041100
     44 H14         18.6640    -0.3620    -7.3320 hc         1 TIE       0.083700
     45 H15         15.1550     4.5100    -6.6130 ha         1 TIE       0.108500
     46 H16         14.0970     1.4300    -9.3870 ha         1 TIE       0.108500
     47 H17         15.8300     3.0190    -4.4580 ha         1 TIE       0.143500
     48 H18         12.5680     1.7010    -2.0120 ha         1 TIE       0.143500
     49 H19         12.9240     4.4040    -5.6240 ha         1 TIE       0.122500
     50 H20         11.8580     1.3030    -8.4000 ha         1 TIE       0.122500
     51 H21         16.2830     4.8340    -2.8780 ha         1 TIE       0.118500
     52 H22         13.0090     3.5490    -0.4410 ha         1 TIE       0.118500
     53 H23         14.3480     6.3610    -0.9040 hc         1 TIE       0.045367
     54 H24         14.6260     5.2310     0.4170 hc         1 TIE       0.045367
     55 H25         15.9770     5.7690    -0.5950 hc         1 TIE       0.045367
     56 H26          9.6160     3.5740    -4.3670 h1         1 TIE       0.066367
     57 H27         11.3620     3.3210    -4.1420 h1         1 TIE       0.066367
     58 H28         10.7650     4.7580    -5.0220 h1         1 TIE       0.066367
     59 C5          17.2680     1.1480    -7.6820 c          1 TIE       0.608100
     60 O           17.3410     1.7150    -6.5870 o          1 TIE      -0.640100
     61 N1          16.8120     1.7770    -8.7760 ns         1 TIE      -0.488900
     62 S           10.5620     2.7290    -6.3430 ss         1 TIE      -0.147000
@<TRIPOS>BOND
     1     1     5 2   
     2     1    28 1   
     3     1    31 1   
     4     2    12 1   
     5     2    32 1   
     6     2    33 1   
     7     2    61 1   
     8     3     5 ar  
     9     3    29 2   
    10     3    30 ar  
    11     4     6 ar  
    12     4    11 ar  
    13     5     6 ar  
    14     6    14 1   
    15     7     8 1   
    16     7    14 1   
    17     7    34 1   
    18     7    35 1   
    19     8    10 1   
    20     8    37 1   
    21     8    38 1   
    22     9    13 1   
    23     9    14 1   
    24     9    39 1   
    25     9    40 1   
    26    10    13 1   
    27    10    41 1   
    28    10    42 1   
    29    11    30 ar  
    30    11    43 1   
    31    12    16 ar  
    32    12    17 ar  
    33    13    44 1   
    34    13    59 1   
    35    15    18 ar  
    36    15    19 ar  
    37    15    28 1   
    38    16    20 ar  
    39    16    45 1   
    40    17    21 ar  
    41    17    46 1   
    42    18    22 ar  
    43    18    47 1   
    44    19    23 ar  
    45    19    48 1   
    46    20    25 ar  
    47    20    49 1   
    48    21    25 ar  
    49    21    50 1   
    50    22    24 ar  
    51    22    51 1   
    52    23    24 ar  
    53    23    52 1   
    54    24    26 1   
    55    25    62 1   
    56    26    53 1   
    57    26    54 1   
    58    26    55 1   
    59    27    56 1   
    60    27    57 1   
    61    27    58 1   
    62    27    62 1   
    63    28    29 1   
    64    36    61 1   
    65    59    60 2   
    66    59    61 1   
@<TRIPOS>SUBSTRUCTURE
     1 TIE         1 TEMP              0 ****  ****    0 ROOT
