@<TRIPOS>MOLECULE
TIF
   71    73     1     0     0
SMALL
abcg2


@<TRIPOS>ATOM
      1 C7          -4.8160    -0.7720    -0.2830 c3         1 TIF      -0.249100
      2 S8          -3.0780    -0.6360    -0.7200 s6         1 TIF       1.174100
      3 C4          -5.1150    -2.1570     0.1960 ca         1 TIF      -0.082300
      4 C5          -5.4640    -3.1550    -0.7100 ca         1 TIF      -0.085000
      5 C6          -5.7190    -4.4460    -0.2660 ca         1 TIF      -0.109500
      6 C1          -5.6200    -4.7500     1.0850 ca         1 TIF      -0.100000
      7 C2          -5.2680    -3.7590     1.9920 ca         1 TIF      -0.109500
      8 C3          -5.0110    -2.4700     1.5480 ca         1 TIF      -0.085000
      9 O22         -2.3000    -0.8790     0.4870 o          1 TIF      -0.522500
     10 O23         -2.8400    -1.4460    -1.9060 o          1 TIF      -0.522500
     11 N9          -2.9480     0.9530    -1.1590 n7         1 TIF      -0.887300
     12 C10         -2.3390     1.8900    -0.2370 c3         1 TIF       0.154500
     13 C18         -2.6390     3.3190    -0.7010 c3         1 TIF      -0.070400
     14 C19         -4.1260     3.6510    -0.8310 c3         1 TIF      -0.056700
     15 C20         -4.8750     3.4460     0.4810 c3         1 TIF      -0.088600
     16 C21         -4.2840     5.0870    -1.3200 c3         1 TIF      -0.088600
     17 C11         -0.8260     1.6750    -0.1500 c          1 TIF       0.590100
     18 O17         -0.2230     1.1190    -1.0570 o          1 TIF      -0.610100
     19 N12         -0.1970     2.1800     0.9210 n          1 TIF      -0.383800
     20 C13          1.2400     2.0450     1.0360 c5         1 TIF       0.027700
     21 C24          1.6240     0.5880     1.2800 c          1 TIF       0.586100
     22 O33          0.8990    -0.1820     1.8890 o          1 TIF      -0.573100
     23 C14          1.5740     2.9090     2.2580 c5         1 TIF      -0.083400
     24 C15          0.3290     2.7880     3.1300 c5         1 TIF      -0.093400
     25 C16         -0.8120     2.7490     2.1180 c5         1 TIF       0.110000
     26 N25          2.8410     0.2480     0.8320 ns         1 TIF      -0.507900
     27 C26          3.4070    -1.0700     1.0540 c3         1 TIF       0.152300
     28 C27          4.7850    -1.1430     0.4600 ca         1 TIF      -0.100300
     29 C32          4.9530    -1.2430    -0.9180 ca         1 TIF      -0.106500
     30 C31          6.2210    -1.2730    -1.4760 ca         1 TIF      -0.082000
     31 C30          7.3540    -1.2120    -0.6660 ca         1 TIF      -0.138900
     32 C34          8.7290    -1.2450    -1.2370 ce         1 TIF       0.656800
     33 N35          9.6780    -1.7130    -0.5220 n2         1 TIF      -0.824100
     34 N36          8.8330    -0.8000    -2.5250 nv         1 TIF      -1.074200
     35 C29          7.1860    -1.1310     0.7140 ca         1 TIF      -0.082000
     36 C28          5.9160    -1.0870     1.2680 ca         1 TIF      -0.106500
     37 H7          -5.3800    -0.5010    -1.1760 h1         1 TIF       0.096700
     38 H7A         -5.0040    -0.0220     0.4870 h1         1 TIF       0.096700
     39 H5          -5.5480    -2.9220    -1.7640 ha         1 TIF       0.118500
     40 H6          -5.9950    -5.2140    -0.9770 ha         1 TIF       0.115000
     41 H1          -5.8230    -5.7550     1.4310 ha         1 TIF       0.113000
     42 H2          -5.1940    -3.9890     3.0470 ha         1 TIF       0.115000
     43 H3          -4.7430    -1.6980     2.2600 ha         1 TIF       0.118500
     44 HN9         -2.6490     1.0500    -2.1230 hn         1 TIF       0.502000
     45 H10         -2.7880     1.7360     0.7460 h1         1 TIF       0.081700
     46 H18         -2.1810     4.0180     0.0060 hc         1 TIF       0.050700
     47 H18A        -2.1420     3.4910    -1.6610 hc         1 TIF       0.050700
     48 H19         -4.5610     2.9860    -1.5820 hc         1 TIF       0.058700
     49 H20         -5.9170     3.7540     0.3830 hc         1 TIF       0.033200
     50 H20A        -4.8810     2.4020     0.7980 hc         1 TIF       0.033200
     51 H20B        -4.4270     4.0340     1.2860 hc         1 TIF       0.033200
     52 H21         -3.7680     5.2480    -2.2680 hc         1 TIF       0.033200
     53 H21A        -5.3360     5.3360    -1.4680 hc         1 TIF       0.033200
     54 H21B        -3.8750     5.7960    -0.5960 hc         1 TIF       0.033200
     55 H13          1.7380     2.4190     0.1380 h1         1 TIF       0.076700
     56 H14          2.4880     2.5920     2.7580 hc         1 TIF       0.057200
     57 H14A         1.7180     3.9410     1.9340 hc         1 TIF       0.057200
     58 H15          0.3520     1.8670     3.7120 hc         1 TIF       0.065200
     59 H15A         0.2220     3.6190     3.8250 hc         1 TIF       0.065200
     60 H16         -1.1890     3.7550     1.9200 h1         1 TIF       0.048700
     61 H16A        -1.6450     2.1400     2.4700 h1         1 TIF       0.048700
     62 HN25         3.3800     0.9180     0.3060 hn         1 TIF       0.315500
     63 H26          3.4500    -1.2810     2.1250 h1         1 TIF       0.062200
     64 H26A         2.7640    -1.8300     0.6030 h1         1 TIF       0.062200
     65 H32          4.0870    -1.3060    -1.5650 ha         1 TIF       0.121500
     66 H31          6.3180    -1.3650    -2.5500 ha         1 TIF       0.129000
     67 HN35        10.5690    -1.6500    -1.0090 hn         1 TIF       0.371400
     68 HN36         8.1710    -0.1120    -2.8450 hn         1 TIF       0.460000
     69 HN3A         9.7620    -0.6620    -2.8900 hn         1 TIF       0.460000
     70 H29          8.0560    -1.0890     1.3550 ha         1 TIF       0.129000
     71 H28          5.8050    -1.0100     2.3420 ha         1 TIF       0.121500
@<TRIPOS>BOND
     1     1     2 1   
     2     1     3 1   
     3     1    37 1   
     4     1    38 1   
     5     2     9 2   
     6     2    10 2   
     7     2    11 1   
     8     3     4 ar  
     9     3     8 ar  
    10     4     5 ar  
    11     4    39 1   
    12     5     6 ar  
    13     5    40 1   
    14     6     7 ar  
    15     6    41 1   
    16     7     8 ar  
    17     7    42 1   
    18     8    43 1   
    19    11    12 1   
    20    11    44 1   
    21    12    13 1   
    22    12    17 1   
    23    12    45 1   
    24    13    14 1   
    25    13    46 1   
    26    13    47 1   
    27    14    15 1   
    28    14    16 1   
    29    14    48 1   
    30    15    49 1   
    31    15    50 1   
    32    15    51 1   
    33    16    52 1   
    34    16    53 1   
    35    16    54 1   
    36    17    18 2   
    37    17    19 1   
    38    19    20 1   
    39    19    25 1   
    40    20    21 1   
    41    20    23 1   
    42    20    55 1   
    43    21    22 2   
    44    21    26 1   
    45    23    24 1   
    46    23    56 1   
    47    23    57 1   
    48    24    25 1   
    49    24    58 1   
    50    24    59 1   
    51    25    60 1   
    52    25    61 1   
    53    26    27 1   
    54    26    62 1   
    55    27    28 1   
    56    27    63 1   
    57    27    64 1   
    58    28    29 ar  
    59    28    36 ar  
    60    29    30 ar  
    61    29    65 1   
    62    30    31 ar  
    63    30    66 1   
    64    31    32 1   
    65    31    35 ar  
    66    32    33 2   
    67    32    34 1   
    68    33    67 1   
    69    34    68 1   
    70    34    69 1   
    71    35    36 ar  
    72    35    70 1   
    73    36    71 1   
@<TRIPOS>SUBSTRUCTURE
     1 TIF         1 TEMP              0 ****  ****    0 ROOT
