@<TRIPOS>MOLECULE
TIF
   71    73     1     0     0
SMALL
No Charge or Current Charge


@<TRIPOS>ATOM
      1 C7          -4.9550    -0.5510     0.1050 c3         1 TIF      -0.249100
      2 S8          -3.6970    -0.7980    -1.1640 s6         1 TIF       1.174100
      3 C4          -5.5830    -1.8390     0.6230 ca         1 TIF      -0.082300
      4 C5          -6.7560    -2.3450     0.0310 ca         1 TIF      -0.085000
      5 C6          -7.3350    -3.5320     0.5100 ca         1 TIF      -0.109500
      6 C1          -6.7460    -4.2190     1.5850 ca         1 TIF      -0.100000
      7 C2          -5.5760    -3.7170     2.1800 ca         1 TIF      -0.109500
      8 C3          -4.9960    -2.5300     1.7010 ca         1 TIF      -0.085000
      9 O22         -2.4970    -1.4010    -0.5830 o          1 TIF      -0.522500
     10 O23         -4.3270    -1.3760    -2.3520 o          1 TIF      -0.522500
     11 N9          -3.3000     0.7630    -1.5870 n7         1 TIF      -0.887300
     12 C10         -2.5310     1.6220    -0.6320 c3         1 TIF       0.154500
     13 C18         -2.7810     3.1130    -0.9850 c3         1 TIF      -0.070400
     14 C19         -4.2430     3.6130    -0.8010 c3         1 TIF      -0.056700
     15 C20         -4.7270     3.5270     0.6670 c3         1 TIF      -0.088600
     16 C21         -4.4040     5.0510    -1.3430 c3         1 TIF      -0.088600
     17 C11         -0.9850     1.3190    -0.6210 c          1 TIF       0.590100
     18 O17         -0.4340     0.8270    -1.6030 o          1 TIF      -0.610100
     19 N12         -0.2220     1.6560     0.5210 n          1 TIF      -0.383800
     20 C13          1.2550     1.4680     0.5710 c5         1 TIF       0.027700
     21 C24          1.7080    -0.0120     0.7910 c          1 TIF       0.586100
     22 O33          1.0200    -0.9630     1.1400 o          1 TIF      -0.573100
     23 C14          1.6160     2.3260     1.8220 c5         1 TIF      -0.083400
     24 C15          0.4090     2.0680     2.7570 c5         1 TIF      -0.093400
     25 C16         -0.7890     2.1920     1.7810 c5         1 TIF       0.110000
     26 N25          3.0510    -0.1250     0.5030 ns         1 TIF      -0.507900
     27 C26          3.8050    -1.3700     0.5990 c3         1 TIF       0.152300
     28 C27          5.2770    -1.1390     0.2960 ca         1 TIF      -0.100300
     29 C32          5.7680    -1.2940    -1.0130 ca         1 TIF      -0.106500
     30 C31          7.1280    -1.0760    -1.2950 ca         1 TIF      -0.082000
     31 C30          8.0260    -0.6820    -0.2730 ca         1 TIF      -0.138900
     32 C34          9.4870    -0.4780    -0.5520 ce         1 TIF       0.656800
     33 N35         10.3770    -0.4770     0.3540 n2         1 TIF      -0.824100
     34 N36          9.8610    -0.1770    -1.8150 nv         1 TIF      -1.074200
     35 C29          7.5240    -0.5500     1.0430 ca         1 TIF      -0.082000
     36 C28          6.1640    -0.7670     1.3220 ca         1 TIF      -0.106500
     37 H7          -5.7130     0.0960    -0.3480 h1         1 TIF       0.096700
     38 H7A         -4.4700    -0.0100     0.9230 h1         1 TIF       0.096700
     39 H5          -7.2180    -1.8190    -0.8020 ha         1 TIF       0.118500
     40 H6          -8.2410    -3.9200     0.0490 ha         1 TIF       0.115000
     41 H1          -7.1950    -5.1380     1.9560 ha         1 TIF       0.113000
     42 H2          -5.1190    -4.2480     3.0130 ha         1 TIF       0.115000
     43 H3          -4.0900    -2.1480     2.1670 ha         1 TIF       0.118500
     44 HN9         -2.7060     0.5830    -2.3970 hn         1 TIF       0.502000
     45 H10         -2.8910     1.4570     0.3880 h1         1 TIF       0.081700
     46 H18         -2.1210     3.7430    -0.3770 hc         1 TIF       0.050700
     47 H18A        -2.4750     3.2760    -2.0270 hc         1 TIF       0.050700
     48 H19         -4.9010     2.9710    -1.4020 hc         1 TIF       0.058700
     49 H20         -5.7380     3.9410     0.7650 hc         1 TIF       0.033200
     50 H20A        -4.7650     2.4890     1.0160 hc         1 TIF       0.033200
     51 H20B        -4.0620     4.0920     1.3320 hc         1 TIF       0.033200
     52 H21         -4.1170     5.1030    -2.4000 hc         1 TIF       0.033200
     53 H21A        -5.4460     5.3830    -1.2620 hc         1 TIF       0.033200
     54 H21B        -3.7760     5.7540    -0.7810 hc         1 TIF       0.033200
     55 H13          1.7420     1.8530    -0.3350 h1         1 TIF       0.076700
     56 H14          2.5740     2.0480     2.2770 hc         1 TIF       0.057200
     57 H14A         1.6840     3.3890     1.5580 hc         1 TIF       0.057200
     58 H15          0.4540     1.0660     3.2000 hc         1 TIF       0.065200
     59 H15A         0.3490     2.7850     3.5830 hc         1 TIF       0.065200
     60 H16         -1.0920     3.2400     1.6570 h1         1 TIF       0.048700
     61 H16A        -1.6520     1.6150     2.1400 h1         1 TIF       0.048700
     62 HN25         3.5420     0.7130     0.2170 hn         1 TIF       0.315500
     63 H26          3.6940    -1.7800     1.6120 h1         1 TIF       0.062200
     64 H26A         3.3860    -2.0980    -0.1090 h1         1 TIF       0.062200
     65 H32          5.0950    -1.5890    -1.8150 ha         1 TIF       0.121500
     66 H31          7.4770    -1.2270    -2.3140 ha         1 TIF       0.129000
     67 HN35        11.2940    -0.5220    -0.1030 hn         1 TIF       0.371400
     68 HN36         9.1050     0.1120    -2.4240 hn         1 TIF       0.460000
     69 HN3A        10.7180     0.3540    -1.9140 hn         1 TIF       0.460000
     70 H29          8.1890    -0.2670     1.8560 ha         1 TIF       0.129000
     71 H28          5.7990    -0.6480     2.3400 ha         1 TIF       0.121500
@<TRIPOS>BOND
     1     1     2 1   
     2     1     3 1   
     3     1    37 1   
     4     1    38 1   
     5     2     9 2   
     6     2    10 2   
     7     2    11 1   
     8     3     4 ar  
     9     3     8 ar  
    10     4     5 ar  
    11     4    39 1   
    12     5     6 ar  
    13     5    40 1   
    14     6     7 ar  
    15     6    41 1   
    16     7     8 ar  
    17     7    42 1   
    18     8    43 1   
    19    11    12 1   
    20    11    44 1   
    21    12    13 1   
    22    12    17 1   
    23    12    45 1   
    24    13    14 1   
    25    13    46 1   
    26    13    47 1   
    27    14    15 1   
    28    14    16 1   
    29    14    48 1   
    30    15    49 1   
    31    15    50 1   
    32    15    51 1   
    33    16    52 1   
    34    16    53 1   
    35    16    54 1   
    36    17    18 2   
    37    17    19 1   
    38    19    20 1   
    39    19    25 1   
    40    20    21 1   
    41    20    23 1   
    42    20    55 1   
    43    21    22 2   
    44    21    26 1   
    45    23    24 1   
    46    23    56 1   
    47    23    57 1   
    48    24    25 1   
    49    24    58 1   
    50    24    59 1   
    51    25    60 1   
    52    25    61 1   
    53    26    27 1   
    54    26    62 1   
    55    27    28 1   
    56    27    63 1   
    57    27    64 1   
    58    28    29 ar  
    59    28    36 ar  
    60    29    30 ar  
    61    29    65 1   
    62    30    31 ar  
    63    30    66 1   
    64    31    32 1   
    65    31    35 ar  
    66    32    33 2   
    67    32    34 1   
    68    33    67 1   
    69    34    68 1   
    70    34    69 1   
    71    35    36 ar  
    72    35    70 1   
    73    36    71 1   
@<TRIPOS>SUBSTRUCTURE
     1 TIF         1 TEMP              0 ****  ****    0 ROOT
