@<TRIPOS>MOLECULE
TIG
   34    35     1     0     0
SMALL
No Charge or Current Charge


@<TRIPOS>ATOM
      1 C           -4.4920   -35.9400    26.0680 c          1 TIG       0.695000
      2 N           -2.7510   -34.6090    27.4650 n7         1 TIG      -0.873400
      3 O           -5.4830   -36.5510    26.4510 o          1 TIG      -0.731000
      4 C1          -2.6010   -35.5710    28.5910 c3         1 TIG       0.161800
      5 N1          -0.8050   -34.1800    29.7170 n8         1 TIG      -0.999200
      6 C2          -1.1690   -35.5210    29.2050 c3         1 TIG       0.148800
      7 CA          -4.1070   -34.5960    26.8070 c3         1 TIG       0.031500
      8 CB          -4.2050   -33.3810    25.8480 c3         1 TIG       0.012800
      9 CG          -5.5940   -33.1490    25.3070 cc         1 TIG      -0.076400
     10 CD1         -6.6100   -32.4070    25.9030 cd         1 TIG      -0.188100
     11 CD2         -6.1450   -33.6480    24.0760 ca         1 TIG      -0.075800
     12 NE1         -7.7670   -32.4370    25.0870 na         1 TIG      -0.236700
     13 CE2         -7.4340   -33.2020    23.9860 ca         1 TIG      -0.046200
     14 CE3         -5.5650   -34.4370    23.0700 ca         1 TIG      -0.017000
     15 CH2         -7.6940   -34.3120    21.8590 ca         1 TIG      -0.099000
     16 CZ2         -8.2440   -33.5160    22.8860 ca         1 TIG      -0.154000
     17 CZ3         -6.3590   -34.7700    21.9510 ca         1 TIG      -0.167000
     18 OXT         -3.7110   -36.3960    25.2410 o          1 TIG      -0.731000
     19 H1          -3.3320   -35.3510    29.3820 h1         1 TIG       0.041200
     20 HN1          0.2180   -34.1130    29.7800 hn         1 TIG       0.388000
     21 HN1A        -1.0550   -33.5050    28.9840 hn         1 TIG       0.388000
     22 H2          -1.0820   -36.2490    30.0240 h1         1 TIG       0.013700
     23 H2A         -0.4440   -35.7950    28.4270 h1         1 TIG       0.013700
     24 HA          -4.8690   -34.4410    27.5830 h1         1 TIG       0.043700
     25 HB          -3.8830   -32.4790    26.3830 hc         1 TIG       0.031700
     26 HBA         -3.4990   -33.5110    25.0190 hc         1 TIG       0.031700
     27 HD1         -6.5920   -31.8680    26.8470 h4         1 TIG       0.199000
     28 HE3         -4.5370   -34.7810    23.1460 ha         1 TIG       0.142000
     29 HH2         -8.2980   -34.5720    20.9930 ha         1 TIG       0.088000
     30 HZ2         -9.2680   -33.1570    22.8230 ha         1 TIG       0.092000
     31 HZ3         -5.9400   -35.3800    21.1550 ha         1 TIG       0.098000
     32 HNE1        -8.6590   -31.9860    25.2700 hn         1 TIG       0.330000
     33 H15         -2.0650   -34.8670    26.7440 hn         1 TIG       0.406000
     34 H16         -2.7920   -36.5970    28.2470 h1         1 TIG       0.041200
@<TRIPOS>BOND
     1     1     3 1   
     2     1     7 1   
     3     1    18 1   
     4     2     4 1   
     5     2     7 1   
     6     2    33 1   
     7     4     6 1   
     8     4    19 1   
     9     4    34 1   
    10     5     6 1   
    11     5    20 1   
    12     5    21 1   
    13     6    22 1   
    14     6    23 1   
    15     7     8 1   
    16     7    24 1   
    17     8     9 1   
    18     8    25 1   
    19     8    26 1   
    20     9    10 2   
    21     9    11 1   
    22    10    12 1   
    23    10    27 1   
    24    11    13 ar  
    25    11    14 ar  
    26    12    13 1   
    27    12    32 1   
    28    13    16 ar  
    29    14    17 ar  
    30    14    28 1   
    31    15    16 ar  
    32    15    17 ar  
    33    15    29 1   
    34    16    30 1   
    35    17    31 1   
@<TRIPOS>SUBSTRUCTURE
     1 TIG         1 TEMP              0 ****  ****    0 ROOT
