@<TRIPOS>MOLECULE
TIG
   34    35     1     0     0
SMALL
bcc


@<TRIPOS>ATOM
      1 C           -4.5230   -35.9350    26.1790 c          1 TIG       0.905600
      2 N           -2.7570   -34.6480    27.4160 n7         1 TIG      -0.818200
      3 O           -5.6450   -36.4070    26.4450 o          1 TIG      -0.836300
      4 C1          -2.5790   -35.5790    28.5160 c3         1 TIG       0.161800
      5 N1          -0.9480   -34.1270    29.6150 n8         1 TIG      -0.888800
      6 C2          -1.1770   -35.4620    29.0880 c3         1 TIG       0.148800
      7 CA          -4.1100   -34.6170    26.8810 c3         1 TIG       0.031500
      8 CB          -4.2070   -33.4290    25.9110 c3         1 TIG       0.012800
      9 CG          -5.5690   -33.1950    25.3430 cc         1 TIG      -0.076400
     10 CD1         -6.5800   -32.4730    25.9130 cd         1 TIG      -0.138100
     11 CD2         -6.0900   -33.6820    24.0990 ca         1 TIG      -0.075800
     12 NE1         -7.6870   -32.4860    25.1070 na         1 TIG      -0.186400
     13 CE2         -7.4180   -33.2120    23.9860 ca         1 TIG      -0.046200
     14 CE3         -5.5560   -34.4610    23.0660 ca         1 TIG      -0.035000
     15 CH2         -7.6590   -34.2660    21.8720 ca         1 TIG      -0.117000
     16 CZ2         -8.2150   -33.4970    22.8770 ca         1 TIG      -0.172000
     17 CZ3         -6.3400   -34.7440    21.9650 ca         1 TIG      -0.185000
     18 OXT         -3.6780   -36.4070    25.3870 o          1 TIG      -0.836300
     19 H1          -3.3050   -35.3340    29.2970 h1         1 TIG       0.041200
     20 HN1          0.0250   -34.0230    29.8750 hn         1 TIG       0.332800
     21 HN1A        -1.1150   -33.4620    28.8700 hn         1 TIG       0.332800
     22 H2          -1.0690   -36.1900    29.8960 h1         1 TIG       0.013700
     23 H2A         -0.4580   -35.7590    28.3090 h1         1 TIG       0.013700
     24 HA          -4.7950   -34.4230    27.7140 h1         1 TIG       0.043700
     25 HB          -3.8710   -32.5370    26.4460 hc         1 TIG       0.031700
     26 HBA         -3.4910   -33.5840    25.0970 hc         1 TIG       0.031700
     27 HD1         -6.5920   -31.9360    26.8490 h4         1 TIG       0.149000
     28 HE3         -4.5480   -34.8480    23.1400 ha         1 TIG       0.160000
     29 HH2         -8.2510   -34.5040    20.9980 ha         1 TIG       0.106000
     30 HZ2         -9.2310   -33.1290    22.8050 ha         1 TIG       0.110000
     31 HZ3         -5.9390   -35.3460    21.1600 ha         1 TIG       0.116000
     32 HNE1        -8.5530   -32.0150    25.3080 hn         1 TIG       0.279700
     33 H15         -2.1420   -34.9340    26.6600 hn         1 TIG       0.350800
     34 H16         -2.7600   -36.6280    28.2350 h1         1 TIG       0.041200
@<TRIPOS>BOND
     1     1     3 1   
     2     1     7 1   
     3     1    18 1   
     4     2     4 1   
     5     2     7 1   
     6     2    33 1   
     7     4     6 1   
     8     4    19 1   
     9     4    34 1   
    10     5     6 1   
    11     5    20 1   
    12     5    21 1   
    13     6    22 1   
    14     6    23 1   
    15     7     8 1   
    16     7    24 1   
    17     8     9 1   
    18     8    25 1   
    19     8    26 1   
    20     9    10 2   
    21     9    11 1   
    22    10    12 1   
    23    10    27 1   
    24    11    13 ar  
    25    11    14 ar  
    26    12    13 1   
    27    12    32 1   
    28    13    16 ar  
    29    14    17 ar  
    30    14    28 1   
    31    15    16 ar  
    32    15    17 ar  
    33    15    29 1   
    34    16    30 1   
    35    17    31 1   
@<TRIPOS>SUBSTRUCTURE
     1 TIG         1 TEMP              0 ****  ****    0 ROOT
