@<TRIPOS>MOLECULE
TIH
   19    19     1     0     0
SMALL
No Charge or Current Charge


@<TRIPOS>ATOM
      1 N           16.8830    17.3080    17.0050 n8         1 TIH      -0.886800
      2 CA          16.2550    18.2320    15.9830 c3         1 TIH       0.024500
      3 C           15.6550    17.5900    14.6540 c          1 TIH       0.935600
      4 O           16.1120    16.5280    14.2380 o          1 TIH      -0.833300
      5 OXT         14.6670    18.1160    14.1490 o          1 TIH      -0.833300
      6 CB          17.2180    19.4010    15.6440 c3         1 TIH      -0.032100
      7 CG          18.4370    19.0020    14.8510 cc         1 TIH       0.010600
      8 CD          18.6010    19.0310    13.4890 cd         1 TIH      -0.153000
      9 CE1         19.8910    18.6160    13.0570 cd         1 TIH      -0.141000
     10 CE2         20.7310    18.2740    14.0850 cc         1 TIH      -0.139100
     11 SD          19.9240    18.4720    15.6360 ss         1 TIH      -0.166800
     12 H           17.3400    17.8670    17.7310 hn         1 TIH       0.327800
     13 H2          17.6520    16.8020    16.5520 hn         1 TIH       0.327800
     14 HA          15.3950    18.6870    16.4920 h1         1 TIH       0.045700
     15 HB2         16.6600    20.1600    15.0840 hc         1 TIH       0.037200
     16 HB3         17.5320    19.8910    16.5740 hc         1 TIH       0.037200
     17 HD          17.8160    19.3410    12.8060 ha         1 TIH       0.162000
     18 HE1         20.1850    18.5760    12.0130 ha         1 TIH       0.132000
     19 HE2         21.7570    17.9280    14.0430 h4         1 TIH       0.146000
@<TRIPOS>BOND
     1     1     2 1   
     2     1    12 1   
     3     1    13 1   
     4     2     3 1   
     5     2     6 1   
     6     2    14 1   
     7     3     4 1   
     8     3     5 1   
     9     6     7 1   
    10     6    15 1   
    11     6    16 1   
    12     7     8 2   
    13     7    11 1   
    14     8     9 1   
    15     8    17 1   
    16     9    10 2   
    17     9    18 1   
    18    10    11 1   
    19    10    19 1   
@<TRIPOS>SUBSTRUCTURE
     1 TIH         1 TEMP              0 ****  ****    0 ROOT
