@<TRIPOS>MOLECULE
TIH
   19    19     1     0     0
SMALL
bcc


@<TRIPOS>ATOM
      1 N           16.8770    17.3330    16.9830 n8         1 TIH      -0.886800
      2 CA          16.2850    18.2470    16.0270 c3         1 TIH       0.024500
      3 C           15.8290    17.5130    14.7430 c          1 TIH       0.935600
      4 O           16.2800    16.3680    14.5480 o          1 TIH      -0.833300
      5 OXT         15.0690    18.1600    13.9960 o          1 TIH      -0.833300
      6 CB          17.1870    19.4390    15.6270 c3         1 TIH      -0.032100
      7 CG          18.3930    19.0600    14.8350 cc         1 TIH       0.010600
      8 CD          18.5780    19.1510    13.4860 cd         1 TIH      -0.153000
      9 CE1         19.8400    18.6580    13.0530 cd         1 TIH      -0.141000
     10 CE2         20.6030    18.1970    14.0820 cc         1 TIH      -0.139100
     11 SD          19.7820    18.3580    15.5790 ss         1 TIH      -0.166800
     12 H           17.4110    17.8360    17.6810 hn         1 TIH       0.327800
     13 H2          17.5120    16.7080    16.5040 hn         1 TIH       0.327800
     14 HA          15.3980    18.6950    16.4890 h1         1 TIH       0.045700
     15 HB2         16.5990    20.1420    15.0350 hc         1 TIH       0.037200
     16 HB3         17.4830    19.9740    16.5350 hc         1 TIH       0.037200
     17 HD          17.8280    19.5580    12.8220 ha         1 TIH       0.162000
     18 HE1         20.1650    18.6520    12.0220 ha         1 TIH       0.132000
     19 HE2         21.5940    17.7730    14.0400 h4         1 TIH       0.146000
@<TRIPOS>BOND
     1     1     2 1   
     2     1    12 1   
     3     1    13 1   
     4     2     3 1   
     5     2     6 1   
     6     2    14 1   
     7     3     4 1   
     8     3     5 1   
     9     6     7 1   
    10     6    15 1   
    11     6    16 1   
    12     7     8 2   
    13     7    11 1   
    14     8     9 1   
    15     8    17 1   
    16     9    10 2   
    17     9    18 1   
    18    10    11 1   
    19    10    19 1   
@<TRIPOS>SUBSTRUCTURE
     1 TIH         1 TEMP              0 ****  ****    0 ROOT
