@<TRIPOS>MOLECULE
TII
   45    47     1     0     0
SMALL
No Charge or Current Charge


@<TRIPOS>ATOM
      1 C17         -3.7480     1.1460     1.9610 c3         1 TII       0.175100
      2 N16         -3.6750     1.1830     0.4810 n3         1 TII      -0.749600
      3 C18         -4.9670     0.9920    -0.2230 c5         1 TII       0.180800
      4 C19         -4.5600     0.8350    -1.7260 c5         1 TII      -0.083400
      5 C20         -3.0140     0.5970    -1.7120 c5         1 TII      -0.080400
      6 C15         -2.7420     0.2520    -0.2170 c5         1 TII       0.189200
      7 C1          -1.2270     0.4420     0.1370 c5         1 TII       0.236800
      8 C14         -3.0030    -1.2580     0.0820 c5         1 TII      -0.115400
      9 C13         -1.7120    -1.9180    -0.4800 c5         1 TII       0.230800
     10 N2          -0.6550    -0.9010    -0.1980 nh         1 TII      -0.838400
     11 C3           0.7390    -1.1650    -0.3220 ca         1 TII       0.342000
     12 C12          1.6830    -0.2200     0.1290 ca         1 TII      -0.266000
     13 C7           3.0600    -0.5080    -0.0150 ca         1 TII       0.149100
     14 O8           4.0550     0.3600     0.4050 os         1 TII      -0.349100
     15 C9           3.8070     1.7180     0.8160 c3         1 TII       0.179300
     16 C11          5.0870     2.2050     1.5200 c3         1 TII      -0.107600
     17 C10          3.4760     2.5610    -0.4370 c3         1 TII      -0.107600
     18 C6           3.4410    -1.7420    -0.5920 ca         1 TII       0.239900
     19 N5           2.5560    -2.6700    -1.0310 nb         1 TII      -0.606000
     20 C4           1.2370    -2.3740    -0.8930 ca         1 TII       0.209900
     21 H173        -4.1260     0.1800     2.3180 h1         1 TII       0.029700
     22 H171        -2.7650     1.3240     2.4130 h1         1 TII       0.029700
     23 H172        -4.4290     1.9270     2.3260 h1         1 TII       0.029700
     24 H181        -5.4830     0.0900     0.1330 h1         1 TII       0.036200
     25 H182        -5.6470     1.8420    -0.0710 h1         1 TII       0.036200
     26 H191        -5.0960    -0.0020    -2.1860 hc         1 TII       0.052700
     27 H192        -4.8150     1.7300    -2.3040 hc         1 TII       0.052700
     28 H201        -2.7040    -0.1820    -2.4160 hc         1 TII       0.052200
     29 H202        -2.4900     1.5140    -2.0040 hc         1 TII       0.052200
     30 H11         -0.7710     1.2550    -0.4450 h1         1 TII       0.051700
     31 H12         -1.0830     0.6600     1.2030 h1         1 TII       0.051700
     32 H141        -3.0780    -1.4520     1.1570 hc         1 TII       0.058200
     33 H142        -3.9070    -1.6600    -0.3860 hc         1 TII       0.058200
     34 H131        -1.5130    -2.8760     0.0190 h1         1 TII       0.046200
     35 H132        -1.7970    -2.1080    -1.5600 h1         1 TII       0.046200
     36 H120         1.3500     0.7030     0.5860 ha         1 TII       0.120000
     37 H9           2.9820     1.7720     1.5380 h1         1 TII       0.041700
     38 H113         5.9480     2.1610     0.8420 hc         1 TII       0.046533
     39 H111         4.9680     3.2410     1.8590 hc         1 TII       0.046533
     40 H112         5.3030     1.5830     2.3960 hc         1 TII       0.046533
     41 H102         4.2840     2.4940    -1.1740 hc         1 TII       0.046533
     42 H103         2.5480     2.2240    -0.9110 hc         1 TII       0.046533
     43 H101         3.3480     3.6150    -0.1640 hc         1 TII       0.046533
     44 H6           4.4950    -1.9920    -0.7080 h4         1 TII       0.030100
     45 H4           0.5530    -3.1380    -1.2600 h4         1 TII       0.016100
@<TRIPOS>BOND
     1     1     2 1   
     2     1    21 1   
     3     1    22 1   
     4     1    23 1   
     5     2     3 1   
     6     2     6 1   
     7     3     4 1   
     8     3    24 1   
     9     3    25 1   
    10     4     5 1   
    11     4    26 1   
    12     4    27 1   
    13     5     6 1   
    14     5    28 1   
    15     5    29 1   
    16     6     7 1   
    17     6     8 1   
    18     7    10 1   
    19     7    30 1   
    20     7    31 1   
    21     8     9 1   
    22     8    32 1   
    23     8    33 1   
    24     9    10 1   
    25     9    34 1   
    26     9    35 1   
    27    10    11 1   
    28    11    12 ar  
    29    11    20 ar  
    30    12    13 ar  
    31    12    36 1   
    32    13    14 1   
    33    13    18 ar  
    34    14    15 1   
    35    15    16 1   
    36    15    17 1   
    37    15    37 1   
    38    16    38 1   
    39    16    39 1   
    40    16    40 1   
    41    17    41 1   
    42    17    42 1   
    43    17    43 1   
    44    18    19 ar  
    45    18    44 1   
    46    19    20 ar  
    47    20    45 1   
@<TRIPOS>SUBSTRUCTURE
     1 TII         1 TEMP              0 ****  ****    0 ROOT
