@<TRIPOS>MOLECULE
TII
   45    47     1     0     0
SMALL
bcc


@<TRIPOS>ATOM
      1 C17         -4.0400     0.6880     1.8900 c3         1 TII       0.175100
      2 N16         -3.5860     0.9930     0.5580 n3         1 TII      -0.749600
      3 C18         -4.6170     1.4280    -0.3600 c5         1 TII       0.180800
      4 C19         -3.8640     1.5220    -1.6740 c5         1 TII      -0.083400
      5 C20         -2.9790     0.2780    -1.6200 c5         1 TII      -0.080400
      6 C15         -2.7240     0.0290    -0.1130 c5         1 TII       0.189200
      7 C1          -1.2520     0.2440     0.2530 c5         1 TII       0.236800
      8 C14         -2.9030    -1.4610     0.2260 c5         1 TII      -0.115400
      9 C13         -1.6120    -2.0750    -0.2930 c5         1 TII       0.230800
     10 N2          -0.6340    -1.0190    -0.0820 nh         1 TII      -0.700000
     11 C3           0.7010    -1.2000    -0.2170 ca         1 TII       0.138300
     12 C12          1.6150    -0.1820     0.1050 ca         1 TII      -0.284000
     13 C7           2.9730    -0.4110    -0.0580 ca         1 TII       0.083800
     14 O8           3.9480     0.4660     0.2300 os         1 TII      -0.325900
     15 C9           3.6390     1.8080     0.6240 c3         1 TII       0.156100
     16 C11          4.8960     2.3550     1.2710 c3         1 TII      -0.107600
     17 C10          3.2080     2.6430    -0.5700 c3         1 TII      -0.107600
     18 C6           3.3920    -1.6580    -0.5350 ca         1 TII       0.305200
     19 N5           2.5340    -2.6180    -0.8310 nb         1 TII      -0.606000
     20 C4           1.2350    -2.4160    -0.6860 ca         1 TII       0.275200
     21 H173        -4.7540    -0.1460     1.9420 h1         1 TII       0.029700
     22 H171        -3.1990     0.4470     2.5430 h1         1 TII       0.029700
     23 H172        -4.5300     1.5650     2.3150 h1         1 TII       0.029700
     24 H181        -5.4510     0.7100    -0.4400 h1         1 TII       0.036200
     25 H182        -5.0430     2.3810    -0.0360 h1         1 TII       0.036200
     26 H191        -4.5200     1.5340    -2.5440 hc         1 TII       0.052700
     27 H192        -3.2620     2.4330    -1.6940 hc         1 TII       0.052700
     28 H201        -3.5130    -0.5720    -2.0500 hc         1 TII       0.052200
     29 H202        -2.0520     0.3870    -2.1850 hc         1 TII       0.052200
     30 H11         -0.8240     1.0740    -0.3170 h1         1 TII       0.051700
     31 H12         -1.1420     0.4850     1.3190 h1         1 TII       0.051700
     32 H141        -2.9690    -1.6090     1.3060 hc         1 TII       0.058200
     33 H142        -3.7890    -1.9050    -0.2300 hc         1 TII       0.058200
     34 H131        -1.3380    -2.9840     0.2490 h1         1 TII       0.046200
     35 H132        -1.6920    -2.3410    -1.3550 h1         1 TII       0.046200
     36 H120         1.2510     0.7590     0.4920 ha         1 TII       0.138000
     37 H9           2.8410     1.7930     1.3750 h1         1 TII       0.041700
     38 H113         5.7240     2.3840     0.5620 hc         1 TII       0.046533
     39 H111         4.7170     3.3710     1.6210 hc         1 TII       0.046533
     40 H112         5.1940     1.7550     2.1310 hc         1 TII       0.046533
     41 H102         4.0030     2.6930    -1.3150 hc         1 TII       0.046533
     42 H103         2.3110     2.2550    -1.0550 hc         1 TII       0.046533
     43 H101         2.9870     3.6600    -0.2440 hc         1 TII       0.046533
     44 H6           4.4490    -1.8620    -0.6700 h4         1 TII       0.030100
     45 H4           0.5850    -3.2400    -0.9560 h4         1 TII       0.016100
@<TRIPOS>BOND
     1     1     2 1   
     2     1    21 1   
     3     1    22 1   
     4     1    23 1   
     5     2     3 1   
     6     2     6 1   
     7     3     4 1   
     8     3    24 1   
     9     3    25 1   
    10     4     5 1   
    11     4    26 1   
    12     4    27 1   
    13     5     6 1   
    14     5    28 1   
    15     5    29 1   
    16     6     7 1   
    17     6     8 1   
    18     7    10 1   
    19     7    30 1   
    20     7    31 1   
    21     8     9 1   
    22     8    32 1   
    23     8    33 1   
    24     9    10 1   
    25     9    34 1   
    26     9    35 1   
    27    10    11 1   
    28    11    12 ar  
    29    11    20 ar  
    30    12    13 ar  
    31    12    36 1   
    32    13    14 1   
    33    13    18 ar  
    34    14    15 1   
    35    15    16 1   
    36    15    17 1   
    37    15    37 1   
    38    16    38 1   
    39    16    39 1   
    40    16    40 1   
    41    17    41 1   
    42    17    42 1   
    43    17    43 1   
    44    18    19 ar  
    45    18    44 1   
    46    19    20 ar  
    47    20    45 1   
@<TRIPOS>SUBSTRUCTURE
     1 TII         1 TEMP              0 ****  ****    0 ROOT
