@<TRIPOS>MOLECULE
TIJ
   46    50     1     0     0
SMALL
abcg2


@<TRIPOS>ATOM
      1 C10         33.9900    -4.7420   -23.0430 ca         1 TIJ      -0.093000
      2 C13         32.0750    -6.2680   -24.3590 ca         1 TIJ      -0.107500
      3 C15         32.3770    -1.9980   -21.4820 ca         1 TIJ      -0.056200
      4 C17         30.5200    -2.5050   -20.0950 ca         1 TIJ      -0.095000
      5 C20         33.0220    -1.3030   -20.4290 ca         1 TIJ      -0.055800
      6 C22         35.9420     0.7640   -18.1880 ca         1 TIJ       0.231100
      7 C24         36.5110     1.5220   -16.0070 ca         1 TIJ       0.232100
      8 C26         37.6400     2.1740   -16.5100 ca         1 TIJ      -0.298000
      9 C02         37.3090     1.3150   -20.1660 c          1 TIJ       0.615900
     10 C03         36.3590     0.5630   -20.9180 cc         1 TIJ      -0.411200
     11 C04         35.2890    -0.0380   -20.3190 cd         1 TIJ       0.269100
     12 C05         34.2740    -0.8160   -20.9720 cd         1 TIJ      -0.156200
     13 C06         34.3170    -1.2380   -22.2920 cc         1 TIJ      -0.088100
     14 C08         32.9280    -2.5970   -23.8680 c3         1 TIJ       0.125900
     15 C09         32.9820    -4.1060   -23.7670 ca         1 TIJ      -0.122300
     16 C11         34.0390    -6.1290   -22.9760 ca         1 TIJ      -0.107500
     17 C12         33.0830    -6.8970   -23.6350 ca         1 TIJ      -0.098000
     18 C14         32.0250    -4.8790   -24.4210 ca         1 TIJ      -0.093000
     19 C16         31.1330    -2.6040   -21.3340 ca         1 TIJ      -0.112000
     20 C18         31.1360    -1.8180   -19.0360 ca         1 TIJ      -0.128000
     21 C19         32.3760    -1.2170   -19.1880 ca         1 TIJ      -0.059000
     22 C23         35.6470     0.8090   -16.8370 ca         1 TIJ      -0.230000
     23 C27         37.9130     2.1150   -17.8670 ca         1 TIJ       0.281100
     24 C29         37.0590     1.3990   -18.7410 ca         1 TIJ      -0.366600
     25 N07         33.1960    -1.9360   -22.5990 na         1 TIJ      -0.080700
     26 O21         35.0840     0.0610   -18.9810 os         1 TIJ      -0.218200
     27 O25         36.2050     1.5540   -14.6870 oh         1 TIJ      -0.528100
     28 O28         38.9950     2.7410   -18.3610 oh         1 TIJ      -0.552100
     29 H1          34.7340    -4.1520   -22.5230 ha         1 TIJ       0.115000
     30 H2          31.3230    -6.8570   -24.8690 ha         1 TIJ       0.118000
     31 H3          29.5510    -2.9630   -19.9420 ha         1 TIJ       0.114000
     32 H4          38.2990     2.7230   -15.8500 ha         1 TIJ       0.136000
     33 H5          36.4890     0.4840   -21.9870 ha         1 TIJ       0.210000
     34 H6          35.0860    -1.0940   -23.0340 h4         1 TIJ       0.223000
     35 H7          33.6710    -2.2340   -24.5780 h1         1 TIJ       0.067700
     36 H8          31.9480    -2.2830   -24.2280 h1         1 TIJ       0.067700
     37 H9          34.8250    -6.6120   -22.4090 ha         1 TIJ       0.118000
     38 H10         33.1200    -7.9780   -23.5800 ha         1 TIJ       0.117000
     39 H11         31.2310    -4.3910   -24.9740 ha         1 TIJ       0.115000
     40 H12         30.6630    -3.1330   -22.1520 ha         1 TIJ       0.120000
     41 H13         30.6310    -1.7580   -18.0810 ha         1 TIJ       0.115000
     42 H14         32.8330    -0.6910   -18.3630 ha         1 TIJ       0.129000
     43 H15         34.7760     0.3070   -16.4400 ha         1 TIJ       0.149000
     44 H17         36.8580     2.0800   -14.2050 ho         1 TIJ       0.473000
     45 H18         38.9830     2.5650   -19.3470 ho         1 TIJ       0.529000
     46 O01         38.3030     1.8880   -20.6900 o          1 TIJ      -0.618100
@<TRIPOS>BOND
     1     1    15 ar  
     2     1    16 ar  
     3     1    29 1   
     4     2    17 ar  
     5     2    18 ar  
     6     2    30 1   
     7     3     5 ar  
     8     3    19 ar  
     9     3    25 1   
    10     4    19 ar  
    11     4    20 ar  
    12     4    31 1   
    13     5    12 1   
    14     5    21 ar  
    15     6    22 ar  
    16     6    24 ar  
    17     6    26 1   
    18     7     8 ar  
    19     7    22 ar  
    20     7    27 1   
    21     8    23 ar  
    22     8    32 1   
    23     9    10 1   
    24     9    24 1   
    25     9    46 2   
    26    10    11 2   
    27    10    33 1   
    28    11    12 1   
    29    11    26 1   
    30    12    13 2   
    31    13    25 1   
    32    13    34 1   
    33    14    15 1   
    34    14    25 1   
    35    14    35 1   
    36    14    36 1   
    37    15    18 ar  
    38    16    17 ar  
    39    16    37 1   
    40    17    38 1   
    41    18    39 1   
    42    19    40 1   
    43    20    21 ar  
    44    20    41 1   
    45    21    42 1   
    46    22    43 1   
    47    23    24 ar  
    48    23    28 1   
    49    27    44 1   
    50    28    45 1   
@<TRIPOS>SUBSTRUCTURE
     1 TIJ         1 TEMP              0 ****  ****    0 ROOT
