@<TRIPOS>MOLECULE
TIJ
   46    50     1     0     0
SMALL
No Charge or Current Charge


@<TRIPOS>ATOM
      1 C10         33.9740    -4.7490   -23.1350 ca         1 TIJ      -0.093000
      2 C13         32.1260    -6.2520   -24.6250 ca         1 TIJ      -0.107500
      3 C15         32.3410    -2.0370   -21.4130 ca         1 TIJ      -0.056200
      4 C17         30.4600    -2.6210   -20.0190 ca         1 TIJ      -0.095000
      5 C20         32.9340    -1.3900   -20.3610 ca         1 TIJ      -0.055800
      6 C22         35.9090     0.8950   -18.1050 ca         1 TIJ       0.231100
      7 C24         36.5090     1.8760   -15.9730 ca         1 TIJ       0.232100
      8 C26         37.7070     2.3410   -16.5230 ca         1 TIJ      -0.298000
      9 C02         37.3830     1.0600   -20.0960 c          1 TIJ       0.615900
     10 C03         36.3610     0.3000   -20.7950 cc         1 TIJ      -0.411200
     11 C04         35.2060    -0.1200   -20.1730 cd         1 TIJ       0.269100
     12 C05         34.1920    -0.8780   -20.8750 cd         1 TIJ      -0.156200
     13 C06         34.3380    -1.2220   -22.2190 cc         1 TIJ      -0.088100
     14 C08         32.8210    -2.5640   -23.8180 c3         1 TIJ       0.125900
     15 C09         32.9460    -4.0880   -23.8420 ca         1 TIJ      -0.122300
     16 C11         34.0720    -6.1510   -23.1700 ca         1 TIJ      -0.107500
     17 C12         33.1480    -6.9040   -23.9140 ca         1 TIJ      -0.098000
     18 C14         32.0270    -4.8500   -24.5900 ca         1 TIJ      -0.093000
     19 C16         31.0950    -2.6710   -21.2770 ca         1 TIJ      -0.112000
     20 C18         31.0720    -1.9490   -18.9340 ca         1 TIJ      -0.128000
     21 C19         32.3260    -1.3220   -19.0970 ca         1 TIJ      -0.059000
     22 C23         35.6100     1.1540   -16.7620 ca         1 TIJ      -0.230000
     23 C27         38.0030     2.0820   -17.8650 ca         1 TIJ       0.281100
     24 C29         37.1070     1.3570   -18.6660 ca         1 TIJ      -0.366600
     25 N07         33.1670    -1.9410   -22.5270 na         1 TIJ      -0.080700
     26 O21         35.0080     0.1840   -18.8560 os         1 TIJ      -0.218200
     27 O25         36.2140     2.1240   -14.6700 oh         1 TIJ      -0.528100
     28 O28         39.1680     2.5410   -18.3810 oh         1 TIJ      -0.552100
     29 H1          34.6990    -4.1820   -22.5560 ha         1 TIJ       0.115000
     30 H2          31.4110    -6.8330   -25.2030 ha         1 TIJ       0.118000
     31 H3          29.4940    -3.1020   -19.8810 ha         1 TIJ       0.114000
     32 H4          38.4130     2.9040   -15.9200 ha         1 TIJ       0.136000
     33 H5          36.5900     0.1000   -21.8310 ha         1 TIJ       0.210000
     34 H6          35.1180    -1.0390   -22.9490 h4         1 TIJ       0.223000
     35 H7          33.4780    -2.1450   -24.5910 h1         1 TIJ       0.067700
     36 H8          31.7950    -2.2730   -24.0750 h1         1 TIJ       0.067700
     37 H9          34.8650    -6.6540   -22.6210 ha         1 TIJ       0.118000
     38 H10         33.2240    -7.9890   -23.9410 ha         1 TIJ       0.117000
     39 H11         31.2320    -4.3570   -25.1460 ha         1 TIJ       0.115000
     40 H12         30.6290    -3.1900   -22.1110 ha         1 TIJ       0.120000
     41 H13         30.5740    -1.9160   -17.9680 ha         1 TIJ       0.115000
     42 H14         32.7950    -0.8090   -18.2620 ha         1 TIJ       0.129000
     43 H15         34.6800     0.7920   -16.3350 ha         1 TIJ       0.149000
     44 H17         36.9550     2.6370   -14.2850 ho         1 TIJ       0.473000
     45 H18         39.1630     2.2440   -19.3280 ho         1 TIJ       0.529000
     46 O01         38.4110     1.4360   -20.6440 o          1 TIJ      -0.618100
@<TRIPOS>BOND
     1     1    15 ar  
     2     1    16 ar  
     3     1    29 1   
     4     2    17 ar  
     5     2    18 ar  
     6     2    30 1   
     7     3     5 ar  
     8     3    19 ar  
     9     3    25 1   
    10     4    19 ar  
    11     4    20 ar  
    12     4    31 1   
    13     5    12 1   
    14     5    21 ar  
    15     6    22 ar  
    16     6    24 ar  
    17     6    26 1   
    18     7     8 ar  
    19     7    22 ar  
    20     7    27 1   
    21     8    23 ar  
    22     8    32 1   
    23     9    10 1   
    24     9    24 1   
    25     9    46 2   
    26    10    11 2   
    27    10    33 1   
    28    11    12 1   
    29    11    26 1   
    30    12    13 2   
    31    13    25 1   
    32    13    34 1   
    33    14    15 1   
    34    14    25 1   
    35    14    35 1   
    36    14    36 1   
    37    15    18 ar  
    38    16    17 ar  
    39    16    37 1   
    40    17    38 1   
    41    18    39 1   
    42    19    40 1   
    43    20    21 ar  
    44    20    41 1   
    45    21    42 1   
    46    22    43 1   
    47    23    24 ar  
    48    23    28 1   
    49    27    44 1   
    50    28    45 1   
@<TRIPOS>SUBSTRUCTURE
     1 TIJ         1 TEMP              0 ****  ****    0 ROOT
