@<TRIPOS>MOLECULE
TIM
   45    46     1     0     0
SMALL
bcc


@<TRIPOS>ATOM
      1 C5          -4.5560    -0.8430    -0.3700 c6         1 TIM       0.159300
      2 C6          -4.7370    -2.3070    -0.7250 c6         1 TIM       0.124900
      3 O1          -4.2650    -3.1570     0.2950 os         1 TIM      -0.400600
      4 C2          -2.8990    -2.9220     0.5460 c6         1 TIM       0.124900
      5 C3          -2.6410    -1.4860     0.9540 c6         1 TIM       0.159300
      6 N4          -3.1550    -0.5840    -0.0770 nh         1 TIM      -0.712300
      7 C7          -2.7920     0.7380    -0.0150 cc         1 TIM       0.492900
      8 N8          -3.6480     1.7150    -0.0750 nd         1 TIM      -0.571100
      9 S9          -2.8280     3.1470    -0.0850 ss         1 TIM       0.396200
     10 N10         -1.3070     2.5090     0.0110 nd         1 TIM      -0.606100
     11 C11         -1.4160     1.2220     0.0300 cc         1 TIM       0.494300
     12 O12         -0.3960     0.3820     0.0510 os         1 TIM      -0.395100
     13 C13          0.9150     0.9440     0.0540 c3         1 TIM       0.117400
     14 C14          1.9110    -0.1990     0.0240 c3         1 TIM       0.144100
     15 O15          1.7520    -0.9760    -1.1390 oh         1 TIM      -0.577800
     16 C16          3.3200     0.3670     0.1770 c3         1 TIM       0.126800
     17 N17          4.3040    -0.6840     0.0390 n7         1 TIM      -0.816200
     18 C18          5.7150    -0.2950     0.1350 c3         1 TIM       0.193200
     19 C19          6.0820     0.2680     1.5120 c3         1 TIM      -0.097433
     20 C20          6.5290    -1.5640    -0.1180 c3         1 TIM      -0.097433
     21 C21          6.0470     0.7300    -0.9490 c3         1 TIM      -0.097433
     22 H5          -4.8730    -0.2330    -1.2170 h1         1 TIM       0.057950
     23 H5A         -5.1990    -0.5790     0.4810 h1         1 TIM       0.057950
     24 H6          -5.7970    -2.5180    -0.8670 h1         1 TIM       0.055950
     25 H6A         -4.2200    -2.5200    -1.6710 h1         1 TIM       0.055950
     26 H2          -2.5900    -3.5890     1.3520 h1         1 TIM       0.055950
     27 H2A         -2.2960    -3.1620    -0.3410 h1         1 TIM       0.055950
     28 H3          -3.1260    -1.2770     1.9170 h1         1 TIM       0.057950
     29 H3A         -1.5710    -1.3470     1.0880 h1         1 TIM       0.057950
     30 H13          1.0440     1.5910    -0.8190 h1         1 TIM       0.054700
     31 H13A         1.0540     1.5550     0.9510 h1         1 TIM       0.054700
     32 H14          1.7060    -0.8570     0.8790 h1         1 TIM       0.065700
     33 HO15         2.4410    -0.7310    -1.7660 ho         1 TIM       0.416000
     34 H16          3.4840     1.1110    -0.6090 h1         1 TIM       0.039700
     35 H16A         3.3620     0.9130     1.1310 h1         1 TIM       0.039700
     36 HN17         4.1240    -1.3930     0.7430 hn         1 TIM       0.360800
     37 H19          5.8990    -0.4720     2.2950 hc         1 TIM       0.038922
     38 H19A         7.1380     0.5420     1.5580 hc         1 TIM       0.038922
     39 H19B         5.5060     1.1620     1.7570 hc         1 TIM       0.038922
     40 H20          6.3270    -1.9660    -1.1120 hc         1 TIM       0.038922
     41 H20A         7.5990    -1.3650    -0.0410 hc         1 TIM       0.038922
     42 H20B         6.2870    -2.3390     0.6140 hc         1 TIM       0.038922
     43 H21          5.5970     1.7050    -0.7510 hc         1 TIM       0.038922
     44 H21A         7.1260     0.8800    -1.0030 hc         1 TIM       0.038922
     45 H21B         5.7030     0.3880    -1.9260 hc         1 TIM       0.038922
@<TRIPOS>BOND
     1     1     2 1   
     2     1     6 1   
     3     1    22 1   
     4     1    23 1   
     5     2     3 1   
     6     2    24 1   
     7     2    25 1   
     8     3     4 1   
     9     4     5 1   
    10     4    26 1   
    11     4    27 1   
    12     5     6 1   
    13     5    28 1   
    14     5    29 1   
    15     6     7 1   
    16     7     8 2   
    17     7    11 1   
    18     8     9 1   
    19     9    10 1   
    20    10    11 2   
    21    11    12 1   
    22    12    13 1   
    23    13    14 1   
    24    13    30 1   
    25    13    31 1   
    26    14    15 1   
    27    14    16 1   
    28    14    32 1   
    29    15    33 1   
    30    16    17 1   
    31    16    34 1   
    32    16    35 1   
    33    17    18 1   
    34    17    36 1   
    35    18    19 1   
    36    18    20 1   
    37    18    21 1   
    38    19    37 1   
    39    19    38 1   
    40    19    39 1   
    41    20    40 1   
    42    20    41 1   
    43    20    42 1   
    44    21    43 1   
    45    21    44 1   
    46    21    45 1   
@<TRIPOS>SUBSTRUCTURE
     1 TIM         1 TEMP              0 ****  ****    0 ROOT
