@<TRIPOS>MOLECULE
TIM
   45    46     1     0     0
SMALL
No Charge or Current Charge


@<TRIPOS>ATOM
      1 C5          -4.6210    -0.9220    -0.5390 c6         1 TIM       0.159300
      2 C6          -4.5650    -2.3960    -1.0390 c6         1 TIM       0.148100
      3 O1          -4.0640    -3.2720    -0.0020 os         1 TIM      -0.447000
      4 C2          -2.7360    -2.9070     0.4420 c6         1 TIM       0.148100
      5 C3          -2.7290    -1.4590     1.0120 c6         1 TIM       0.159300
      6 N4          -3.3090    -0.4770     0.0370 nh         1 TIM      -0.712300
      7 C7          -2.9350     0.8710     0.0290 cc         1 TIM       0.492900
      8 N8          -3.8350     1.8120    -0.1380 nd         1 TIM      -0.571100
      9 S9          -2.9860     3.2680    -0.0910 ss         1 TIM       0.396200
     10 N10         -1.4260     2.6780     0.1280 nd         1 TIM      -0.606100
     11 C11         -1.5920     1.3760     0.1690 cc         1 TIM       0.494300
     12 O12         -0.4810     0.5660     0.2950 os         1 TIM      -0.418300
     13 C13          0.8560     1.1140     0.2620 c3         1 TIM       0.140600
     14 C14          1.8770    -0.0440     0.4130 c3         1 TIM       0.167300
     15 O15          1.8440    -0.9350    -0.7110 oh         1 TIM      -0.640000
     16 C16          3.3410     0.4550     0.5210 c3         1 TIM       0.126800
     17 N17          4.2840    -0.6650     0.2120 n7         1 TIM      -0.871400
     18 C18          5.7160    -0.3540     0.0080 c3         1 TIM       0.193200
     19 C19          6.2920     0.3450     1.2640 c3         1 TIM      -0.097433
     20 C20          6.4250    -1.7100    -0.2090 c3         1 TIM      -0.097433
     21 C21          5.8910     0.5310    -1.2510 c3         1 TIM      -0.097433
     22 H5          -4.9120    -0.2820    -1.3850 h1         1 TIM       0.057950
     23 H5A         -5.4120    -0.8330     0.2200 h1         1 TIM       0.057950
     24 H6          -5.5690    -2.7270    -1.3380 h1         1 TIM       0.055950
     25 H6A         -3.9080    -2.4650    -1.9190 h1         1 TIM       0.055950
     26 H2          -2.4080    -3.6140     1.2170 h1         1 TIM       0.055950
     27 H2A         -2.0360    -2.9800    -0.4030 h1         1 TIM       0.055950
     28 H3          -3.3210    -1.4470     1.9390 h1         1 TIM       0.057950
     29 H3A         -1.7010    -1.2050     1.2970 h1         1 TIM       0.057950
     30 H13          1.0400     1.6420    -0.6830 h1         1 TIM       0.054700
     31 H13A         1.0000     1.8250     1.0860 h1         1 TIM       0.054700
     32 H14          1.6420    -0.5970     1.3320 h1         1 TIM       0.065700
     33 HO15         2.8080    -1.1500    -0.8060 ho         1 TIM       0.455000
     34 H16          3.4700     1.2790    -0.1930 h1         1 TIM       0.039700
     35 H16A         3.5130     0.8590     1.5280 h1         1 TIM       0.039700
     36 HN17         4.2280    -1.3460     0.9820 hn         1 TIM       0.416000
     37 H19          6.1100    -0.2520     2.1660 hc         1 TIM       0.038922
     38 H19A         7.3760     0.4820     1.1640 hc         1 TIM       0.038922
     39 H19B         5.8480     1.3360     1.4120 hc         1 TIM       0.038922
     40 H20          6.0160    -2.2320    -1.0830 hc         1 TIM       0.038922
     41 H20A         7.4990    -1.5650    -0.3760 hc         1 TIM       0.038922
     42 H20B         6.3050    -2.3630     0.6640 hc         1 TIM       0.038922
     43 H21          5.4760     1.5340    -1.1010 hc         1 TIM       0.038922
     44 H21A         6.9540     0.6500    -1.4930 hc         1 TIM       0.038922
     45 H21B         5.3950     0.0800    -2.1190 hc         1 TIM       0.038922
@<TRIPOS>BOND
     1     1     2 1   
     2     1     6 1   
     3     1    22 1   
     4     1    23 1   
     5     2     3 1   
     6     2    24 1   
     7     2    25 1   
     8     3     4 1   
     9     4     5 1   
    10     4    26 1   
    11     4    27 1   
    12     5     6 1   
    13     5    28 1   
    14     5    29 1   
    15     6     7 1   
    16     7     8 2   
    17     7    11 1   
    18     8     9 1   
    19     9    10 1   
    20    10    11 2   
    21    11    12 1   
    22    12    13 1   
    23    13    14 1   
    24    13    30 1   
    25    13    31 1   
    26    14    15 1   
    27    14    16 1   
    28    14    32 1   
    29    15    33 1   
    30    16    17 1   
    31    16    34 1   
    32    16    35 1   
    33    17    18 1   
    34    17    36 1   
    35    18    19 1   
    36    18    20 1   
    37    18    21 1   
    38    19    37 1   
    39    19    38 1   
    40    19    39 1   
    41    20    40 1   
    42    20    41 1   
    43    20    42 1   
    44    21    43 1   
    45    21    44 1   
    46    21    45 1   
@<TRIPOS>SUBSTRUCTURE
     1 TIM         1 TEMP              0 ****  ****    0 ROOT
