@<TRIPOS>MOLECULE
TIN
   83    85     1     0     0
SMALL
No Charge or Current Charge


@<TRIPOS>ATOM
      1 C1          -3.4460     2.7340    -5.3800 c6         1 TIN      -0.073400
      2 C2          -1.9750     2.2590    -5.4820 c6         1 TIN      -0.071400
      3 C3          -1.7260     0.9750    -4.6410 c6         1 TIN      -0.060700
      4 C4          -2.7220    -0.1460    -5.0610 c6         1 TIN      -0.071400
      5 C5          -4.1930     0.3310    -4.9630 c6         1 TIN      -0.073400
      6 C6          -4.4260     1.6120    -5.7990 c6         1 TIN      -0.073400
      7 C17         -0.2380     0.5220    -4.7470 c3         1 TIN      -0.075400
      8 C19          0.1440    -0.6750    -3.8400 c3         1 TIN       0.176800
      9 N2           1.6080    -0.9160    -3.6890 n3         1 TIN      -0.738600
     10 C25          2.2770    -1.2590    -4.9750 c3         1 TIN       0.178800
     11 C26          3.8230    -1.3110    -4.9240 c3         1 TIN      -0.081400
     12 C29          4.4640    -1.4520    -6.3220 c3         1 TIN      -0.075400
     13 C32          6.0030    -1.5080    -6.2780 c3         1 TIN      -0.088100
     14 C38          1.9000    -1.8910    -2.6000 c3         1 TIN       0.225100
     15 C40          1.3550    -1.4760    -1.2350 ca         1 TIN      -0.093300
     16 C43          0.4490    -2.3000    -0.5450 ca         1 TIN      -0.122000
     17 C44         -0.0600    -1.9060     0.7020 ca         1 TIN      -0.091000
     18 C45          0.3290    -0.6740     1.2710 ca         1 TIN      -0.112600
     19 C46          1.2670     0.1690     0.6010 cp         1 TIN       0.001000
     20 C47          1.7560    -0.2570    -0.6570 ca         1 TIN      -0.094000
     21 C51          1.7940     1.4500     1.1610 cp         1 TIN      -0.030000
     22 C52          2.6720     1.4790     2.2820 ca         1 TIN      -0.035300
     23 C53          3.1500     2.7160     2.7630 ca         1 TIN      -0.115000
     24 C54          2.7800     3.9190     2.1390 ca         1 TIN      -0.110000
     25 C55          1.9310     3.8980     1.0230 ca         1 TIN      -0.128000
     26 C56          1.4460     2.6730     0.5380 ca         1 TIN      -0.083000
     27 C65         -0.2280    -0.2060     2.6000 c          1 TIN       0.594700
     28 C66         -1.0590    -1.0470     4.8600 c3         1 TIN      -0.049300
     29 O67         -0.4940     0.9610     2.8560 o          1 TIN      -0.628100
     30 C68         -0.3970    -2.0400     5.8620 c          1 TIN       0.715000
     31 O69         -0.2430    -3.2030     5.5120 o          1 TIN      -0.719500
     32 O70          0.0300    -1.5950     6.9170 o          1 TIN      -0.719500
     33 N1          -0.4790    -1.2180     3.5040 ns         1 TIN      -0.460900
     34 C74         -2.6020    -1.2020     4.8610 c3         1 TIN      -0.062400
     35 C76         -3.3450    -0.1610     4.0000 c3         1 TIN       0.085600
     36 S1          -5.1760    -0.3820     4.1520 ss         1 TIN      -0.483000
     37 C82         -5.7490     0.9590     3.0150 c3         1 TIN       0.044900
     38 C7           3.1300     0.2030     2.9820 c3         1 TIN      -0.063800
     39 HC11        -3.6620     3.0500    -4.3500 hc         1 TIN       0.036700
     40 HC12        -3.5970     3.6170    -6.0160 hc         1 TIN       0.036700
     41 HC21        -1.3080     3.0640    -5.1450 hc         1 TIN       0.037450
     42 HC22        -1.7240     2.0690    -6.5360 hc         1 TIN       0.037450
     43 HC3         -1.9020     1.2190    -3.5830 hc         1 TIN       0.050700
     44 HC41        -2.5080    -0.4690    -6.0890 hc         1 TIN       0.037450
     45 HC42        -2.5940    -1.0310    -4.4230 hc         1 TIN       0.037450
     46 HC51        -4.4490     0.5230    -3.9120 hc         1 TIN       0.036700
     47 HC52        -4.8660    -0.4660    -5.3080 hc         1 TIN       0.036700
     48 HC61        -5.4620     1.9560    -5.6740 hc         1 TIN       0.033700
     49 HC62        -4.2970     1.3870    -6.8670 hc         1 TIN       0.033700
     50 H171         0.4120     1.3650    -4.4810 hc         1 TIN       0.047200
     51 H172        -0.0130     0.2730    -5.7900 hc         1 TIN       0.047200
     52 H191        -0.3420    -1.5820    -4.2240 h1         1 TIN       0.034200
     53 H192        -0.3000    -0.4710    -2.8570 h1         1 TIN       0.034200
     54 H251         2.0200    -0.5090    -5.7330 h1         1 TIN       0.024700
     55 H252         1.9050    -2.2250    -5.3430 h1         1 TIN       0.024700
     56 H261         4.1480    -2.1570    -4.3070 hc         1 TIN       0.049700
     57 H262         4.1950    -0.3960    -4.4470 hc         1 TIN       0.049700
     58 H291         4.1570    -0.6060    -6.9500 hc         1 TIN       0.032200
     59 H292         4.0870    -2.3620    -6.8040 hc         1 TIN       0.032200
     60 H321         6.4110    -1.6070    -7.2920 hc         1 TIN       0.030700
     61 H322         6.4130    -0.5940    -5.8310 hc         1 TIN       0.030700
     62 H323         6.3440    -2.3660    -5.6870 hc         1 TIN       0.030700
     63 H381         1.4940    -2.8770    -2.8670 h1         1 TIN       0.033700
     64 H382         2.9830    -2.0160    -2.4770 h1         1 TIN       0.033700
     65 HC43         0.1280    -3.2440    -0.9800 ha         1 TIN       0.103000
     66 HC44        -0.7810    -2.5480     1.2040 ha         1 TIN       0.125000
     67 HC47         2.4670     0.3710    -1.1880 ha         1 TIN       0.127000
     68 HC53         3.8150     2.7450     3.6230 ha         1 TIN       0.108000
     69 HC54         3.1570     4.8660     2.5190 ha         1 TIN       0.099000
     70 HC55         1.6480     4.8270     0.5350 ha         1 TIN       0.099000
     71 HC56         0.7880     2.6640    -0.3270 ha         1 TIN       0.107000
     72 HC66        -0.8150    -0.0370     5.2140 h1         1 TIN       0.064700
     73 HN1         -0.1990    -2.1520     3.2260 hn         1 TIN       0.334500
     74 H741        -2.8660    -2.2090     4.5150 hc         1 TIN       0.058700
     75 H742        -2.9600    -1.1190     5.8940 hc         1 TIN       0.058700
     76 H761        -3.0750     0.8520     4.3270 h1         1 TIN       0.057700
     77 H762        -3.0600    -0.2750     2.9460 h1         1 TIN       0.057700
     78 H821        -6.8460     0.9740     2.9820 h1         1 TIN       0.048700
     79 H822        -5.3870     1.9320     3.3730 h1         1 TIN       0.048700
     80 H823        -5.3620     0.7810     2.0030 h1         1 TIN       0.048700
     81 HC71         2.4170    -0.0960     3.7590 hc         1 TIN       0.055700
     82 HC72         3.2350    -0.6310     2.2790 hc         1 TIN       0.055700
     83 HC73         4.1050     0.3390     3.4650 hc         1 TIN       0.055700
@<TRIPOS>BOND
     1     1     2 1   
     2     1     6 1   
     3     1    39 1   
     4     1    40 1   
     5     2     3 1   
     6     2    41 1   
     7     2    42 1   
     8     3     4 1   
     9     3     7 1   
    10     3    43 1   
    11     4     5 1   
    12     4    44 1   
    13     4    45 1   
    14     5     6 1   
    15     5    46 1   
    16     5    47 1   
    17     6    48 1   
    18     6    49 1   
    19     7     8 1   
    20     7    50 1   
    21     7    51 1   
    22     8     9 1   
    23     8    52 1   
    24     8    53 1   
    25     9    10 1   
    26     9    14 1   
    27    10    11 1   
    28    10    54 1   
    29    10    55 1   
    30    11    12 1   
    31    11    56 1   
    32    11    57 1   
    33    12    13 1   
    34    12    58 1   
    35    12    59 1   
    36    13    60 1   
    37    13    61 1   
    38    13    62 1   
    39    14    15 1   
    40    14    63 1   
    41    14    64 1   
    42    15    16 ar  
    43    15    20 ar  
    44    16    17 ar  
    45    16    65 1   
    46    17    18 ar  
    47    17    66 1   
    48    18    19 ar  
    49    18    27 1   
    50    19    20 ar  
    51    19    21 1   
    52    20    67 1   
    53    21    22 ar  
    54    21    26 ar  
    55    22    23 ar  
    56    22    38 1   
    57    23    24 ar  
    58    23    68 1   
    59    24    25 ar  
    60    24    69 1   
    61    25    26 ar  
    62    25    70 1   
    63    26    71 1   
    64    27    29 2   
    65    27    33 1   
    66    28    30 1   
    67    28    33 1   
    68    28    34 1   
    69    28    72 1   
    70    30    31 1   
    71    30    32 1   
    72    33    73 1   
    73    34    35 1   
    74    34    74 1   
    75    34    75 1   
    76    35    36 1   
    77    35    76 1   
    78    35    77 1   
    79    36    37 1   
    80    37    78 1   
    81    37    79 1   
    82    37    80 1   
    83    38    81 1   
    84    38    82 1   
    85    38    83 1   
@<TRIPOS>SUBSTRUCTURE
     1 TIN         1 TEMP              0 ****  ****    0 ROOT
