@<TRIPOS>MOLECULE
TIN
   83    85     1     0     0
SMALL
abcg2


@<TRIPOS>ATOM
      1 C1          -2.7830     3.3970    -5.4070 c6         1 TIN      -0.073400
      2 C2          -1.4630     2.7880    -4.9460 c6         1 TIN      -0.071400
      3 C3          -1.5410     1.2660    -4.8150 c6         1 TIN      -0.060700
      4 C4          -2.0250     0.6560    -6.1320 c6         1 TIN      -0.071400
      5 C5          -3.3470     1.2590    -6.5970 c6         1 TIN      -0.073400
      6 C6          -3.2530     2.7760    -6.7180 c6         1 TIN      -0.073400
      7 C17         -0.1950     0.6960    -4.3710 c3         1 TIN      -0.075400
      8 C19         -0.2400    -0.7640    -3.9380 c3         1 TIN       0.176800
      9 N2           1.0850    -1.2640    -3.5980 n3         1 TIN      -0.738600
     10 C25          1.8470    -1.6580    -4.7710 c3         1 TIN       0.178800
     11 C26          3.3530    -1.5660    -4.5700 c3         1 TIN      -0.081400
     12 C29          4.1280    -1.9530    -5.8240 c3         1 TIN      -0.075400
     13 C32          5.6350    -1.8340    -5.6410 c3         1 TIN      -0.088100
     14 C38          1.0470    -2.2940    -2.5860 c3         1 TIN       0.225100
     15 C40          0.6700    -1.7500    -1.2310 ca         1 TIN      -0.093300
     16 C43         -0.0660    -2.5120    -0.3330 ca         1 TIN      -0.122000
     17 C44         -0.3800    -2.0090     0.9220 ca         1 TIN      -0.091000
     18 C45          0.0180    -0.7310     1.2970 ca         1 TIN      -0.112600
     19 C46          0.7650     0.0460     0.4050 cp         1 TIN       0.001000
     20 C47          1.0820    -0.4790    -0.8420 ca         1 TIN      -0.094000
     21 C51          1.2580     1.4020     0.7530 cp         1 TIN      -0.030000
     22 C52          2.2800     1.5850     1.6940 ca         1 TIN      -0.035300
     23 C53          2.7240     2.8820     1.9460 ca         1 TIN      -0.115000
     24 C54          2.1820     3.9770     1.2890 ca         1 TIN      -0.110000
     25 C55          1.1810     3.7870     0.3470 ca         1 TIN      -0.128000
     26 C56          0.7290     2.5030     0.0840 ca         1 TIN      -0.083000
     27 C65         -0.4370    -0.1700     2.6080 c          1 TIN       0.594700
     28 C66         -0.4610    -0.6130     5.0370 c3         1 TIN      -0.049300
     29 O67         -1.0040     0.9130     2.6740 o          1 TIN      -0.628100
     30 C68          0.7250    -1.0590     5.9320 c          1 TIN       0.715000
     31 O69          1.6150    -1.7460     5.3960 o          1 TIN      -0.719500
     32 O70          0.6630    -0.6950     7.1190 o          1 TIN      -0.719500
     33 N1          -0.1980    -0.9640     3.6610 ns         1 TIN      -0.460900
     34 C74         -1.7630    -1.2400     5.5500 c3         1 TIN      -0.062400
     35 C76         -2.9880    -0.7950     4.7680 c3         1 TIN       0.085600
     36 S1          -4.4770    -1.5530     5.4810 ss         1 TIN      -0.483000
     37 C82         -5.7230    -0.8990     4.3500 c3         1 TIN       0.044900
     38 C7           2.9210     0.4300     2.4120 c3         1 TIN      -0.063800
     39 HC11        -3.5440     3.2310    -4.6370 hc         1 TIN       0.036700
     40 HC12        -2.6810     4.4800    -5.5140 hc         1 TIN       0.036700
     41 HC21        -1.1620     3.2280    -3.9900 hc         1 TIN       0.037450
     42 HC22        -0.6740     3.0420    -5.6660 hc         1 TIN       0.037450
     43 HC3         -2.2880     1.0400    -4.0400 hc         1 TIN       0.050700
     44 HC41        -1.2580     0.8290    -6.8980 hc         1 TIN       0.037450
     45 HC42        -2.1260    -0.4270    -6.0380 hc         1 TIN       0.037450
     46 HC51        -4.1330     1.0030    -5.8770 hc         1 TIN       0.036700
     47 HC52        -3.6450     0.8170    -7.5510 hc         1 TIN       0.036700
     48 HC61        -4.2180     3.1960    -7.0130 hc         1 TIN       0.033700
     49 HC62        -2.5450     3.0320    -7.5140 hc         1 TIN       0.033700
     50 H171         0.1860     1.2780    -3.5250 hc         1 TIN       0.047200
     51 H172         0.5290     0.8290    -5.1830 hc         1 TIN       0.047200
     52 H191        -0.7130    -1.3940    -4.7080 h1         1 TIN       0.034200
     53 H192        -0.8820    -0.8360    -3.0570 h1         1 TIN       0.034200
     54 H251         1.5750    -0.9880    -5.5910 h1         1 TIN       0.024700
     55 H252         1.5750    -2.6730    -5.1100 h1         1 TIN       0.024700
     56 H261         3.6730    -2.2080    -3.7430 hc         1 TIN       0.049700
     57 H262         3.6020    -0.5410    -4.2780 hc         1 TIN       0.049700
     58 H291         3.8090    -1.3210    -6.6580 hc         1 TIN       0.032200
     59 H292         3.8760    -2.9790    -6.1070 hc         1 TIN       0.032200
     60 H321         6.1730    -2.1160    -6.5470 hc         1 TIN       0.030700
     61 H322         5.9220    -0.8110    -5.3910 hc         1 TIN       0.030700
     62 H323         5.9860    -2.4800    -4.8340 hc         1 TIN       0.030700
     63 H381         0.3690    -3.1240    -2.8490 h1         1 TIN       0.033700
     64 H382         2.0420    -2.7410    -2.5050 h1         1 TIN       0.033700
     65 HC43        -0.4110    -3.5000    -0.6130 ha         1 TIN       0.103000
     66 HC44        -0.9730    -2.6090     1.6020 ha         1 TIN       0.125000
     67 HC47         1.6630     0.1150    -1.5370 ha         1 TIN       0.127000
     68 HC53         3.5210     3.0330     2.6640 ha         1 TIN       0.108000
     69 HC54         2.5500     4.9720     1.5030 ha         1 TIN       0.099000
     70 HC55         0.7570     4.6310    -0.1820 ha         1 TIN       0.099000
     71 HC56        -0.0550     2.3500    -0.6480 ha         1 TIN       0.107000
     72 HC66        -0.5510     0.4750     5.1060 h1         1 TIN       0.064700
     73 HN1          0.4450    -1.7350     3.5430 hn         1 TIN       0.334500
     74 H741        -1.6780    -2.3300     5.5080 hc         1 TIN       0.058700
     75 H742        -1.8770    -0.9690     6.6010 hc         1 TIN       0.058700
     76 H761        -3.0910     0.2920     4.7960 h1         1 TIN       0.057700
     77 H762        -2.9130    -1.0970     3.7220 h1         1 TIN       0.057700
     78 H821        -6.6910    -1.2930     4.6560 h1         1 TIN       0.048700
     79 H822        -5.7610     0.1890     4.3930 h1         1 TIN       0.048700
     80 H823        -5.5290    -1.2120     3.3250 h1         1 TIN       0.048700
     81 HC71         2.3550     0.1250     3.2950 hc         1 TIN       0.055700
     82 HC72         3.0080    -0.4500     1.7740 hc         1 TIN       0.055700
     83 HC73         3.9200     0.6980     2.7530 hc         1 TIN       0.055700
@<TRIPOS>BOND
     1     1     2 1   
     2     1     6 1   
     3     1    39 1   
     4     1    40 1   
     5     2     3 1   
     6     2    41 1   
     7     2    42 1   
     8     3     4 1   
     9     3     7 1   
    10     3    43 1   
    11     4     5 1   
    12     4    44 1   
    13     4    45 1   
    14     5     6 1   
    15     5    46 1   
    16     5    47 1   
    17     6    48 1   
    18     6    49 1   
    19     7     8 1   
    20     7    50 1   
    21     7    51 1   
    22     8     9 1   
    23     8    52 1   
    24     8    53 1   
    25     9    10 1   
    26     9    14 1   
    27    10    11 1   
    28    10    54 1   
    29    10    55 1   
    30    11    12 1   
    31    11    56 1   
    32    11    57 1   
    33    12    13 1   
    34    12    58 1   
    35    12    59 1   
    36    13    60 1   
    37    13    61 1   
    38    13    62 1   
    39    14    15 1   
    40    14    63 1   
    41    14    64 1   
    42    15    16 ar  
    43    15    20 ar  
    44    16    17 ar  
    45    16    65 1   
    46    17    18 ar  
    47    17    66 1   
    48    18    19 ar  
    49    18    27 1   
    50    19    20 ar  
    51    19    21 1   
    52    20    67 1   
    53    21    22 ar  
    54    21    26 ar  
    55    22    23 ar  
    56    22    38 1   
    57    23    24 ar  
    58    23    68 1   
    59    24    25 ar  
    60    24    69 1   
    61    25    26 ar  
    62    25    70 1   
    63    26    71 1   
    64    27    29 2   
    65    27    33 1   
    66    28    30 1   
    67    28    33 1   
    68    28    34 1   
    69    28    72 1   
    70    30    31 1   
    71    30    32 1   
    72    33    73 1   
    73    34    35 1   
    74    34    74 1   
    75    34    75 1   
    76    35    36 1   
    77    35    76 1   
    78    35    77 1   
    79    36    37 1   
    80    37    78 1   
    81    37    79 1   
    82    37    80 1   
    83    38    81 1   
    84    38    82 1   
    85    38    83 1   
@<TRIPOS>SUBSTRUCTURE
     1 TIN         1 TEMP              0 ****  ****    0 ROOT
