@<TRIPOS>MOLECULE
TIO
   31    31     1     0     0
SMALL
abcg2


@<TRIPOS>ATOM
      1 SG1          2.0710     0.6760    -3.7490 sh         1 TIO      -0.493800
      2 CB1          2.1830    -0.2610    -2.1850 c3         1 TIO       0.109600
      3 CA1          0.9250    -0.0400    -1.3490 c3         1 TIO      -0.135700
      4 C            1.0990    -0.7520    -0.0140 c          1 TIO       0.583100
      5 O            1.3320    -1.9560     0.0330 o          1 TIO      -0.666100
      6 CB2         -0.3450    -0.5720    -2.0320 c3         1 TIO      -0.021100
      7 CG2         -1.5700    -0.3350    -1.1930 ca         1 TIO      -0.082300
      8 CD1         -2.1790     0.9180    -1.1790 ca         1 TIO      -0.098000
      9 CD2         -2.0940    -1.3380    -0.3810 ca         1 TIO      -0.098000
     10 CE1         -3.2820     1.1660    -0.3740 ca         1 TIO      -0.109000
     11 CE2         -3.1980    -1.0960     0.4250 ca         1 TIO      -0.109000
     12 CZ          -3.7960     0.1570     0.4320 ca         1 TIO      -0.109000
     13 N            0.9730     0.0140     1.0670 ns         1 TIO      -0.446900
     14 CA2          1.0240    -0.4810     2.4170 c3         1 TIO      -0.060000
     15 C1           0.8350     0.6640     3.4320 c          1 TIO       0.714000
     16 O1           0.6880     1.8120     2.9730 o          1 TIO      -0.728500
     17 OH           0.8510     0.3190     4.6270 o          1 TIO      -0.728500
     18 HG           3.3250     0.4570    -4.1570 hs         1 TIO       0.203800
     19 HB11         3.0570     0.0930    -1.6370 h1         1 TIO       0.070200
     20 HB12         2.3170    -1.3200    -2.4000 h1         1 TIO       0.070200
     21 HA11         0.8070     1.0360    -1.1800 hc         1 TIO       0.071700
     22 HB21        -0.4670    -0.0840    -3.0020 hc         1 TIO       0.053700
     23 HB22        -0.2200    -1.6380    -2.2310 hc         1 TIO       0.053700
     24 HD1         -1.7860     1.7090    -1.8070 ha         1 TIO       0.113000
     25 HD2         -1.6330    -2.3180    -0.3780 ha         1 TIO       0.113000
     26 HE1         -3.7430     2.1450    -0.3770 ha         1 TIO       0.105000
     27 HE2         -3.5930    -1.8880     1.0480 ha         1 TIO       0.105000
     28 HZ          -4.6590     0.3450     1.0580 ha         1 TIO       0.103000
     29 HN           0.7590     0.9970     0.9840 hn         1 TIO       0.342500
     30 HA21         1.9820    -0.9730     2.6130 h1         1 TIO       0.036200
     31 HA22         0.2490    -1.2360     2.5820 h1         1 TIO       0.036200
@<TRIPOS>BOND
     1     1     2 1   
     2     1    18 1   
     3     2     3 1   
     4     2    19 1   
     5     2    20 1   
     6     3     4 1   
     7     3     6 1   
     8     3    21 1   
     9     4     5 2   
    10     4    13 1   
    11     6     7 1   
    12     6    22 1   
    13     6    23 1   
    14     7     8 ar  
    15     7     9 ar  
    16     8    10 ar  
    17     8    24 1   
    18     9    11 ar  
    19     9    25 1   
    20    10    12 ar  
    21    10    26 1   
    22    11    12 ar  
    23    11    27 1   
    24    12    28 1   
    25    13    14 1   
    26    13    29 1   
    27    14    15 1   
    28    14    30 1   
    29    14    31 1   
    30    15    16 1   
    31    15    17 1   
@<TRIPOS>SUBSTRUCTURE
     1 TIO         1 TEMP              0 ****  ****    0 ROOT
