@<TRIPOS>MOLECULE
TIO
   31    31     1     0     0
SMALL
No Charge or Current Charge


@<TRIPOS>ATOM
      1 SG1          2.1460     0.8130    -3.7610 sh         1 TIO      -0.493800
      2 CB1          2.1710    -0.2340    -2.2270 c3         1 TIO       0.109600
      3 CA1          0.9100    -0.0870    -1.3470 c3         1 TIO      -0.135700
      4 C            1.1340    -0.7970    -0.0010 c          1 TIO       0.583100
      5 O            1.3770    -1.9950     0.0850 o          1 TIO      -0.666100
      6 CB2         -0.3780    -0.6110    -2.0360 c3         1 TIO      -0.021100
      7 CG2         -1.6250    -0.3450    -1.1990 ca         1 TIO      -0.082300
      8 CD1         -2.2120     0.9350    -1.1920 ca         1 TIO      -0.098000
      9 CD2         -2.1920    -1.3700    -0.4160 ca         1 TIO      -0.098000
     10 CE1         -3.3540     1.1870    -0.4120 ca         1 TIO      -0.109000
     11 CE2         -3.3330    -1.1180     0.3640 ca         1 TIO      -0.109000
     12 CZ          -3.9150     0.1610     0.3660 ca         1 TIO      -0.109000
     13 N            1.0530     0.0110     1.1110 ns         1 TIO      -0.446900
     14 CA2          1.2300    -0.4460     2.5090 c3         1 TIO      -0.060000
     15 C1           0.8930     0.6680     3.5400 c          1 TIO       0.714000
     16 O1           1.0370     1.8370     3.2070 o          1 TIO      -0.728500
     17 OH           0.4620     0.3270     4.6320 o          1 TIO      -0.728500
     18 HG           3.3600     0.4220    -4.2250 hs         1 TIO       0.203800
     19 HB11         3.0540     0.0540    -1.6400 h1         1 TIO       0.070200
     20 HB12         2.2960    -1.2850    -2.5210 h1         1 TIO       0.070200
     21 HA11         0.7680     0.9820    -1.1500 hc         1 TIO       0.071700
     22 HB21        -0.4940    -0.1300    -3.0140 hc         1 TIO       0.053700
     23 HB22        -0.2740    -1.6840    -2.2400 hc         1 TIO       0.053700
     24 HD1         -1.7830     1.7360    -1.7910 ha         1 TIO       0.113000
     25 HD2         -1.7450    -2.3620    -0.4080 ha         1 TIO       0.113000
     26 HE1         -3.8030     2.1780    -0.4110 ha         1 TIO       0.105000
     27 HE2         -3.7650    -1.9130     0.9680 ha         1 TIO       0.105000
     28 HZ          -4.7980     0.3570     0.9710 ha         1 TIO       0.103000
     29 HN           0.8490     0.9930     0.9560 hn         1 TIO       0.342500
     30 HA21         2.2720    -0.7540     2.6580 h1         1 TIO       0.036200
     31 HA22         0.5730    -1.3070     2.6910 h1         1 TIO       0.036200
@<TRIPOS>BOND
     1     1     2 1   
     2     1    18 1   
     3     2     3 1   
     4     2    19 1   
     5     2    20 1   
     6     3     4 1   
     7     3     6 1   
     8     3    21 1   
     9     4     5 2   
    10     4    13 1   
    11     6     7 1   
    12     6    22 1   
    13     6    23 1   
    14     7     8 ar  
    15     7     9 ar  
    16     8    10 ar  
    17     8    24 1   
    18     9    11 ar  
    19     9    25 1   
    20    10    12 ar  
    21    10    26 1   
    22    11    12 ar  
    23    11    27 1   
    24    12    28 1   
    25    13    14 1   
    26    13    29 1   
    27    14    15 1   
    28    14    30 1   
    29    14    31 1   
    30    15    16 1   
    31    15    17 1   
@<TRIPOS>SUBSTRUCTURE
     1 TIO         1 TEMP              0 ****  ****    0 ROOT
