@<TRIPOS>MOLECULE
TIQ
   64    68     1     0     0
SMALL
bcc


@<TRIPOS>ATOM
      1 C1           4.5850    -4.8600     0.0160 c3         1 TIQ      -0.087100
      2 C2           3.0710    -4.9210    -0.1380 c3         1 TIQ      -0.070400
      3 C3           2.4540    -3.5350    -0.0000 c3         1 TIQ      -0.004300
      4 S4           0.6510    -3.6760    -0.1620 ss         1 TIQ      -0.258400
      5 C5           0.1160    -2.0070    -0.1550 ca         1 TIQ       0.833300
      6 N6           1.0480    -1.0580    -0.0960 nb         1 TIQ      -0.844000
      7 C7           0.6860     0.2200    -0.0930 ca         1 TIQ       0.806200
      8 N8           1.6160     1.1720    -0.0190 nu         1 TIQ      -0.831900
      9 C9           3.0110     0.8880     0.0270 cx         1 TIQ       0.186500
     10 C11          3.5910     0.2870     1.2570 cx         1 TIQ      -0.101400
     11 C12          3.8600     1.7320     0.9370 cx         1 TIQ      -0.096400
     12 C14          5.1960     2.2080     0.5100 ca         1 TIQ      -0.036300
     13 C15          5.6360     3.4680     0.9070 ca         1 TIQ      -0.112000
     14 C16          6.8830     3.9490     0.5300 ca         1 TIQ      -0.142000
     15 C17          7.7000     3.1640    -0.2530 ca         1 TIQ       0.098900
     16 F18          8.9080     3.5980    -0.6330 f          1 TIQ      -0.123900
     17 C19          7.2740     1.9090    -0.6550 ca         1 TIQ       0.102900
     18 F20          8.0820     1.1620    -1.4150 f          1 TIQ      -0.124900
     19 C21          6.0400     1.4270    -0.2810 ca         1 TIQ      -0.149000
     20 C22         -0.6980     0.5050    -0.1690 ca         1 TIQ      -0.291200
     21 N23         -1.4400     1.6400    -0.1960 nc         1 TIQ      -0.201400
     22 N24         -2.6710     1.3040    -0.2640 nd         1 TIQ      -0.170400
     23 N25         -2.7740    -0.0310    -0.2880 na         1 TIQ       0.000200
     24 C26         -4.0580    -0.6950    -0.2950 c5         1 TIQ       0.073000
     25 C28         -4.9880    -0.2870    -1.4460 c5         1 TIQ      -0.080400
     26 C29         -6.4080    -0.2380    -0.8470 c5         1 TIQ       0.147100
     27 O31         -6.8110     1.1080    -0.7600 os         1 TIQ      -0.394600
     28 C32         -8.1980     1.2840    -0.5800 c3         1 TIQ       0.134400
     29 C33         -8.5070     2.7530    -0.4550 c3         1 TIQ       0.141400
     30 O34         -8.2100     3.4030    -1.6690 oh         1 TIQ      -0.584800
     31 C35         -6.2700    -0.8700     0.5460 c5         1 TIQ       0.081100
     32 O37         -6.3350    -2.2670     0.3830 oh         1 TIQ      -0.593800
     33 C38         -4.8690    -0.4320     0.9690 c5         1 TIQ       0.089100
     34 O40         -4.3240    -1.1360     2.0500 oh         1 TIQ      -0.585800
     35 C41         -1.5490    -0.5860    -0.2250 ca         1 TIQ       0.475800
     36 N42         -1.2000    -1.8700    -0.2200 nb         1 TIQ      -0.722000
     37 H11C         4.8660    -4.4780     0.9990 hc         1 TIQ       0.035367
     38 H12C         5.0270    -5.8490    -0.0970 hc         1 TIQ       0.035367
     39 H13C         5.0320    -4.2070    -0.7350 hc         1 TIQ       0.035367
     40 H21C         2.8150    -5.3410    -1.1140 hc         1 TIQ       0.051200
     41 H22C         2.6520    -5.5940     0.6140 hc         1 TIQ       0.051200
     42 H31C         2.6920    -3.0980     0.9700 h1         1 TIQ       0.072700
     43 H32C         2.8290    -2.8630    -0.7710 h1         1 TIQ       0.072700
     44 H8           1.3210     2.1320    -0.1130 hn         1 TIQ       0.467800
     45 H9           3.4500     0.5970    -0.9240 h1         1 TIQ       0.094700
     46 H111         2.9220     0.0820     2.0830 hc         1 TIQ       0.087200
     47 H112         4.3920    -0.4310     1.1350 hc         1 TIQ       0.087200
     48 H12          3.3130     2.4450     1.5440 hc         1 TIQ       0.091700
     49 H15          4.9990     4.0880     1.5240 ha         1 TIQ       0.141000
     50 H21          5.7530     0.4380    -0.6180 ha         1 TIQ       0.152000
     51 H16          7.2170     4.9280     0.8460 ha         1 TIQ       0.155000
     52 H26         -3.8270    -1.7600    -0.3550 h1         1 TIQ       0.109700
     53 H281        -4.7250     0.6950    -1.8400 hc         1 TIQ       0.081200
     54 H282        -4.9240    -0.9970    -2.2680 hc         1 TIQ       0.081200
     55 H38         -4.8920     0.6490     1.1570 h1         1 TIQ       0.073700
     56 H29         -7.1180    -0.8110    -1.4580 h1         1 TIQ       0.066700
     57 H35         -7.0360    -0.5140     1.2480 h1         1 TIQ       0.047700
     58 H321        -8.7550     0.8510    -1.4230 h1         1 TIQ       0.031200
     59 H322        -8.5570     0.7850     0.3290 h1         1 TIQ       0.031200
     60 H331        -9.5680     2.8430    -0.1910 h1         1 TIQ       0.024700
     61 H332        -7.9340     3.1720     0.3830 h1         1 TIQ       0.024700
     62 H34         -8.3970     4.3400    -1.5610 ho         1 TIQ       0.403000
     63 H37         -5.9630    -2.6770     1.1720 ho         1 TIQ       0.421000
     64 H40         -4.6770    -0.7730     2.8680 ho         1 TIQ       0.411000
@<TRIPOS>BOND
     1     1     2 1   
     2     1    37 1   
     3     1    38 1   
     4     1    39 1   
     5     2     3 1   
     6     2    40 1   
     7     2    41 1   
     8     3     4 1   
     9     3    42 1   
    10     3    43 1   
    11     4     5 1   
    12     5     6 ar  
    13     5    36 ar  
    14     6     7 ar  
    15     7     8 1   
    16     7    20 ar  
    17     8     9 1   
    18     8    44 1   
    19     9    10 1   
    20     9    11 1   
    21     9    45 1   
    22    10    11 1   
    23    10    46 1   
    24    10    47 1   
    25    11    12 1   
    26    11    48 1   
    27    12    13 ar  
    28    12    19 ar  
    29    13    14 ar  
    30    13    49 1   
    31    14    15 ar  
    32    14    51 1   
    33    15    16 1   
    34    15    17 ar  
    35    17    18 1   
    36    17    19 ar  
    37    19    50 1   
    38    20    21 1   
    39    20    35 ar  
    40    21    22 2   
    41    22    23 1   
    42    23    24 1   
    43    23    35 1   
    44    24    25 1   
    45    24    33 1   
    46    24    52 1   
    47    25    26 1   
    48    25    53 1   
    49    25    54 1   
    50    26    27 1   
    51    26    31 1   
    52    26    56 1   
    53    27    28 1   
    54    28    29 1   
    55    28    58 1   
    56    28    59 1   
    57    29    30 1   
    58    29    60 1   
    59    29    61 1   
    60    30    62 1   
    61    31    32 1   
    62    31    33 1   
    63    31    57 1   
    64    32    63 1   
    65    33    34 1   
    66    33    55 1   
    67    34    64 1   
    68    35    36 ar  
@<TRIPOS>SUBSTRUCTURE
     1 TIQ         1 TEMP              0 ****  ****    0 ROOT
