@<TRIPOS>MOLECULE
TIQ
   64    68     1     0     0
SMALL
No Charge or Current Charge


@<TRIPOS>ATOM
      1 C1           4.3040    -5.2230    -0.8500 c3         1 TIQ      -0.087100
      2 C2           2.7700    -5.0760    -0.8970 c3         1 TIQ      -0.070400
      3 C3           2.2960    -3.6470    -0.5740 c3         1 TIQ       0.043600
      4 S4           0.4500    -3.5440    -0.6480 ss         1 TIQ      -0.306300
      5 C5           0.0870    -1.8420    -0.2310 ca         1 TIQ       0.307300
      6 N6           1.1330    -1.0010    -0.0460 nb         1 TIQ      -0.318000
      7 C7           0.8410     0.2740     0.2700 ca         1 TIQ       0.477900
      8 N8           1.8970     1.1560     0.4680 nu         1 TIQ      -0.887100
      9 C9           3.3000     0.8640     0.3300 cx         1 TIQ       0.186500
     10 C11          3.9830     0.1800     1.4880 cx         1 TIQ      -0.101400
     11 C12          4.2680     1.6370     1.1990 cx         1 TIQ      -0.096400
     12 C14          5.6080     2.1070     0.6860 ca         1 TIQ      -0.036300
     13 C15          6.1330     3.3350     1.1410 ca         1 TIQ      -0.094000
     14 C16          7.3790     3.7980     0.6800 ca         1 TIQ      -0.124000
     15 C17          8.1110     3.0350    -0.2420 ca         1 TIQ       0.134000
     16 F18          9.3090     3.4850    -0.6820 f          1 TIQ      -0.159000
     17 C19          7.5980     1.8090    -0.7020 ca         1 TIQ       0.138000
     18 F20          8.2970     1.0650    -1.5900 f          1 TIQ      -0.160000
     19 C21          6.3540     1.3460    -0.2420 ca         1 TIQ      -0.131000
     20 C22         -0.4930     0.6890     0.3950 ca         1 TIQ      -0.160600
     21 N23         -1.0180     1.9380     0.7080 nc         1 TIQ      -0.201400
     22 N24         -2.3410     1.8010     0.6960 nd         1 TIQ      -0.170400
     23 N25         -2.6250     0.4810     0.3820 na         1 TIQ      -0.029100
     24 C26         -4.0160     0.0180     0.2880 c5         1 TIQ       0.102300
     25 C28         -4.8650     0.7180    -0.8040 c5         1 TIQ      -0.080400
     26 C29         -6.2370     0.0520    -0.5440 c5         1 TIQ       0.170300
     27 O31         -7.2650     0.9060    -1.1040 os         1 TIQ      -0.441000
     28 C32         -8.6290     0.4390    -1.0130 c3         1 TIQ       0.157600
     29 C33         -9.5660     1.4620    -1.7100 c3         1 TIQ       0.164600
     30 O34         -9.3530     1.4940    -3.1350 oh         1 TIQ      -0.707000
     31 C35         -6.3600     0.0140     1.0270 c5         1 TIQ       0.104300
     32 O37         -6.7890    -1.2630     1.5060 oh         1 TIQ      -0.716000
     33 C38         -4.9060     0.3130     1.5360 c5         1 TIQ       0.112300
     34 O40         -4.5770    -0.4990     2.6790 oh         1 TIQ      -0.648000
     35 C41         -1.4770    -0.2310     0.1880 ca         1 TIQ       0.147500
     36 N42         -1.2230    -1.5140    -0.1280 nb         1 TIQ      -0.196000
     37 H11C         4.6870    -4.9770     0.1480 hc         1 TIQ       0.035367
     38 H12C         4.5960    -6.2540    -1.0850 hc         1 TIQ       0.035367
     39 H13C         4.7800    -4.5560    -1.5790 hc         1 TIQ       0.035367
     40 H21C         2.4130    -5.3590    -1.8950 hc         1 TIQ       0.051200
     41 H22C         2.3200    -5.7770    -0.1830 hc         1 TIQ       0.051200
     42 H31C         2.6320    -3.3630     0.4320 h1         1 TIQ       0.072700
     43 H32C         2.7260    -2.9410    -1.2970 h1         1 TIQ       0.072700
     44 H8           1.5870     2.1050     0.6810 hn         1 TIQ       0.523000
     45 H9           3.6180     0.5890    -0.6780 h1         1 TIQ       0.094700
     46 H111         3.3840    -0.0550     2.3640 hc         1 TIQ       0.087200
     47 H112         4.7490    -0.5540     1.2560 hc         1 TIQ       0.087200
     48 H12          3.8240     2.3460     1.8940 hc         1 TIQ       0.091700
     49 H15          5.5740     3.9370     1.8560 ha         1 TIQ       0.123000
     50 H21          5.9800     0.3950    -0.6120 ha         1 TIQ       0.134000
     51 H16          7.7760     4.7460     1.0350 ha         1 TIQ       0.137000
     52 H26         -4.0000    -1.0660     0.1030 h1         1 TIQ       0.109700
     53 H281        -4.9000     1.8070    -0.6730 hc         1 TIQ       0.081200
     54 H282        -4.4940     0.5150    -1.8140 hc         1 TIQ       0.081200
     55 H38         -4.8340     1.3790     1.8010 h1         1 TIQ       0.073700
     56 H29         -6.2920    -0.9510    -0.9910 h1         1 TIQ       0.066700
     57 H35         -7.0380     0.8000     1.3890 h1         1 TIQ       0.047700
     58 H321        -8.7390    -0.5430    -1.4910 h1         1 TIQ       0.031200
     59 H322        -8.9360     0.3420     0.0360 h1         1 TIQ       0.031200
     60 H331       -10.6060     1.1810    -1.4940 h1         1 TIQ       0.024700
     61 H332        -9.3970     2.4550    -1.2730 h1         1 TIQ       0.024700
     62 H34         -9.9320     2.2050    -3.4950 ho         1 TIQ       0.502000
     63 H37         -6.1270    -1.4540     2.2210 ho         1 TIQ       0.520000
     64 H40         -3.7250    -0.1620     3.0400 ho         1 TIQ       0.450000
@<TRIPOS>BOND
     1     1     2 1   
     2     1    37 1   
     3     1    38 1   
     4     1    39 1   
     5     2     3 1   
     6     2    40 1   
     7     2    41 1   
     8     3     4 1   
     9     3    42 1   
    10     3    43 1   
    11     4     5 1   
    12     5     6 ar  
    13     5    36 ar  
    14     6     7 ar  
    15     7     8 1   
    16     7    20 ar  
    17     8     9 1   
    18     8    44 1   
    19     9    10 1   
    20     9    11 1   
    21     9    45 1   
    22    10    11 1   
    23    10    46 1   
    24    10    47 1   
    25    11    12 1   
    26    11    48 1   
    27    12    13 ar  
    28    12    19 ar  
    29    13    14 ar  
    30    13    49 1   
    31    14    15 ar  
    32    14    51 1   
    33    15    16 1   
    34    15    17 ar  
    35    17    18 1   
    36    17    19 ar  
    37    19    50 1   
    38    20    21 1   
    39    20    35 ar  
    40    21    22 2   
    41    22    23 1   
    42    23    24 1   
    43    23    35 1   
    44    24    25 1   
    45    24    33 1   
    46    24    52 1   
    47    25    26 1   
    48    25    53 1   
    49    25    54 1   
    50    26    27 1   
    51    26    31 1   
    52    26    56 1   
    53    27    28 1   
    54    28    29 1   
    55    28    58 1   
    56    28    59 1   
    57    29    30 1   
    58    29    60 1   
    59    29    61 1   
    60    30    62 1   
    61    31    32 1   
    62    31    33 1   
    63    31    57 1   
    64    32    63 1   
    65    33    34 1   
    66    33    55 1   
    67    34    64 1   
    68    35    36 ar  
@<TRIPOS>SUBSTRUCTURE
     1 TIQ         1 TEMP              0 ****  ****    0 ROOT
