@<TRIPOS>MOLECULE
TIR
   58    60     1     0     0
SMALL
No Charge or Current Charge


@<TRIPOS>ATOM
      1 N           -7.9430     0.6130     0.2990 ns         1 TIR      -0.524900
      2 C1          -7.7590    -0.3370    -0.8130 c5         1 TIR      -0.002000
      3 O1          -5.5940    -1.2190    -1.6770 o          1 TIR      -0.546100
      4 C2          -6.2200    -0.5310    -0.8800 c          1 TIR       0.597300
      5 O2           3.1790     1.0600    -0.4120 os         1 TIR      -0.473000
      6 C3          -5.6620     0.3010     0.2090 ce         1 TIR      -0.399400
      7 O3           4.0530     0.8890     1.7350 os         1 TIR      -0.461000
      8 C4          -4.3410     0.4310     0.5220 cf         1 TIR       0.302100
      9 O4           5.5060    -2.5220     1.2950 oh         1 TIR      -0.709000
     10 C5          -3.2380    -0.2680    -0.1290 cf         1 TIR      -0.278000
     11 O5          -3.9460     1.2290     1.5180 oh         1 TIR      -0.483100
     12 C6          -1.9680     0.2080    -0.3190 ce         1 TIR      -0.109000
     13 O6          -6.7180     1.7560     1.8270 o          1 TIR      -0.545000
     14 C7          -0.8490    -0.5040    -0.9680 ce         1 TIR      -0.113200
     15 C8           0.4030     0.0110    -0.8900 c2         1 TIR      -0.158200
     16 C9           1.6940    -0.5470    -1.4830 c3         1 TIR      -0.025500
     17 C10          2.9410    -0.3620    -0.5530 c6         1 TIR       0.177300
     18 C11          4.3180     1.3850     0.4040 c6         1 TIR       0.430200
     19 C12          4.3790     2.9280     0.5150 c3         1 TIR      -0.070100
     20 C13          3.9910    -0.5540     1.7840 c6         1 TIR       0.177300
     21 C14          2.7930    -0.9960     0.8650 c6         1 TIR      -0.106700
     22 C15          2.5160    -2.5290     0.8410 c3         1 TIR      -0.075100
     23 C16          5.4410    -1.1040     1.4840 c6         1 TIR       0.182500
     24 C17          6.0910    -0.3940     0.3090 c2         1 TIR      -0.243200
     25 C18          5.6070     0.7630    -0.1830 c2         1 TIR      -0.150400
     26 C19          6.2230     1.4600    -1.3860 c3         1 TIR      -0.047900
     27 C20          1.9200     0.0360    -2.8970 c3         1 TIR      -0.079100
     28 C21         -1.1790    -1.7690    -1.7580 c3         1 TIR      -0.054900
     29 C22         -6.7710     0.9820     0.8880 c          1 TIR       0.595200
     30 H11         -8.2330    -1.3070    -0.6210 h1         1 TIR       0.066200
     31 HO5         -3.0010     1.0300     1.6630 ho         1 TIR       0.475000
     32 H5          -3.4700    -1.2710    -0.4820 ha         1 TIR       0.232000
     33 H6          -1.7350     1.2170     0.0290 ha         1 TIR       0.162000
     34 H8           0.5640     0.9360    -0.3350 ha         1 TIR       0.182000
     35 H9           1.5790    -1.6270    -1.6240 hc         1 TIR       0.061700
     36 H10          3.7980    -0.8230    -1.0660 h1         1 TIR       0.051700
     37 H112         5.2780     3.2470     1.0550 hc         1 TIR       0.054367
     38 H212         4.3930     3.4020    -0.4730 hc         1 TIR       0.054367
     39 H312         3.5080     3.3170     1.0540 hc         1 TIR       0.054367
     40 H13          3.7430    -0.8430     2.8150 h1         1 TIR       0.081700
     41 H14          1.8940    -0.5660     1.3260 hc         1 TIR       0.063700
     42 H115         2.6010    -2.9630     1.8440 hc         1 TIR       0.040700
     43 H215         1.5020    -2.7410     0.4830 hc         1 TIR       0.040700
     44 H315         3.2100    -3.0590     0.1790 hc         1 TIR       0.040700
     45 H16          6.0430    -0.8470     2.3690 h1         1 TIR       0.048700
     46 H17          6.9810    -0.8580    -0.1170 ha         1 TIR       0.179000
     47 H119         6.6270     2.4440    -1.1180 hc         1 TIR       0.045367
     48 H219         7.0490     0.8770    -1.8110 hc         1 TIR       0.045367
     49 H319         5.4810     1.6030    -2.1810 hc         1 TIR       0.045367
     50 H120         2.0290     1.1260    -2.8600 hc         1 TIR       0.040367
     51 H220         2.8260    -0.3850    -3.3490 hc         1 TIR       0.040367
     52 H320         1.0730    -0.1990    -3.5520 hc         1 TIR       0.040367
     53 H121        -2.1390    -1.6810    -2.2810 hc         1 TIR       0.047700
     54 H221        -0.4390    -1.9860    -2.5350 hc         1 TIR       0.047700
     55 H321        -1.2330    -2.6420    -1.0980 hc         1 TIR       0.047700
     56 HN          -8.8180     0.9920     0.6460 hn         1 TIR       0.330500
     57 H12         -8.1100     0.0640    -1.7730 h1         1 TIR       0.066200
     58 HO4          6.4600    -2.7620     1.2890 ho         1 TIR       0.505000
@<TRIPOS>BOND
     1     1     2 1   
     2     1    29 1   
     3     1    56 1   
     4     2     4 1   
     5     2    30 1   
     6     2    57 1   
     7     3     4 2   
     8     4     6 1   
     9     5    17 1   
    10     5    18 1   
    11     6     8 2   
    12     6    29 1   
    13     7    18 1   
    14     7    20 1   
    15     8    10 1   
    16     8    11 1   
    17     9    23 1   
    18     9    58 1   
    19    10    12 2   
    20    10    32 1   
    21    11    31 1   
    22    12    14 1   
    23    12    33 1   
    24    13    29 2   
    25    14    15 2   
    26    14    28 1   
    27    15    16 1   
    28    15    34 1   
    29    16    17 1   
    30    16    27 1   
    31    16    35 1   
    32    17    21 1   
    33    17    36 1   
    34    18    19 1   
    35    18    25 1   
    36    19    37 1   
    37    19    38 1   
    38    19    39 1   
    39    20    21 1   
    40    20    23 1   
    41    20    40 1   
    42    21    22 1   
    43    21    41 1   
    44    22    42 1   
    45    22    43 1   
    46    22    44 1   
    47    23    24 1   
    48    23    45 1   
    49    24    25 2   
    50    24    46 1   
    51    25    26 1   
    52    26    47 1   
    53    26    48 1   
    54    26    49 1   
    55    27    50 1   
    56    27    51 1   
    57    27    52 1   
    58    28    53 1   
    59    28    54 1   
    60    28    55 1   
@<TRIPOS>SUBSTRUCTURE
     1 TIR         1 TEMP              0 ****  ****    0 ROOT
