@<TRIPOS>MOLECULE
TIR
   58    60     1     0     0
SMALL
abcg2


@<TRIPOS>ATOM
      1 N           -7.6770     0.3310     0.6380 ns         1 TIR      -0.524900
      2 C1          -7.4620    -0.8900    -0.0820 c5         1 TIR      -0.002000
      3 O1          -5.4040    -1.7720    -0.9620 o          1 TIR      -0.546100
      4 C2          -5.9690    -0.8770    -0.3600 c          1 TIR       0.597300
      5 O2           3.1910     1.0440    -0.5010 os         1 TIR      -0.473000
      6 C3          -5.4430     0.3450     0.2190 ce         1 TIR      -0.399400
      7 O3           3.7920     0.7490     1.7060 os         1 TIR      -0.461000
      8 C4          -4.1330     0.7700     0.2120 cf         1 TIR       0.302100
      9 O4           5.0760    -2.6050     1.3680 oh         1 TIR      -0.709000
     10 C5          -3.0750    -0.0000    -0.4010 cf         1 TIR      -0.278000
     11 O5          -3.8680     1.9250     0.7940 oh         1 TIR      -0.483100
     12 C6          -1.7930     0.4040    -0.5090 ce         1 TIR      -0.109000
     13 O6          -6.5490     2.1520     1.4200 o          1 TIR      -0.545000
     14 C7          -0.7320    -0.3770    -1.1180 ce         1 TIR      -0.113200
     15 C8           0.4950     0.1780    -1.1480 c2         1 TIR      -0.158200
     16 C9           1.7480    -0.3970    -1.7230 c3         1 TIR      -0.025500
     17 C10          2.9090    -0.3280    -0.7240 c6         1 TIR       0.177300
     18 C11          4.1810     1.2870     0.4690 c6         1 TIR       0.430200
     19 C12          4.2640     2.7890     0.6570 c3         1 TIR      -0.070100
     20 C13          3.6680    -0.6680     1.6680 c6         1 TIR       0.177300
     21 C14          2.6130    -1.0250     0.6050 c6         1 TIR      -0.106700
     22 C15          2.3350    -2.5130     0.4320 c3         1 TIR      -0.075100
     23 C16          5.0960    -1.2120     1.5740 c6         1 TIR       0.182500
     24 C17          5.8720    -0.4920     0.5090 c2         1 TIR      -0.243200
     25 C18          5.4880     0.6720    -0.0040 c2         1 TIR      -0.150400
     26 C19          6.2230     1.3580    -1.1100 c3         1 TIR      -0.047900
     27 C20          2.0960     0.3190    -3.0330 c3         1 TIR      -0.079100
     28 C21         -1.0730    -1.7320    -1.6610 c3         1 TIR      -0.054900
     29 C22         -6.5670     1.0800     0.8360 c          1 TIR       0.595200
     30 H11         -7.7270    -1.7760     0.5020 h1         1 TIR       0.066200
     31 HO5         -2.9270     2.1360     0.7810 ho         1 TIR       0.475000
     32 H5          -3.3730    -0.9570    -0.8000 ha         1 TIR       0.232000
     33 H6          -1.4700     1.3710    -0.1320 ha         1 TIR       0.162000
     34 H8           0.6000     1.1780    -0.7340 ha         1 TIR       0.182000
     35 H9           1.6080    -1.4540    -1.9570 hc         1 TIR       0.061700
     36 H10          3.7710    -0.8160    -1.2030 h1         1 TIR       0.051700
     37 H112         5.0450     3.0400     1.3740 hc         1 TIR       0.054367
     38 H212         4.4930     3.2900    -0.2820 hc         1 TIR       0.054367
     39 H312         3.3150     3.1760     1.0270 hc         1 TIR       0.054367
     40 H13          3.2570    -0.9620     2.6380 h1         1 TIR       0.081700
     41 H14          1.6940    -0.5720     1.0020 hc         1 TIR       0.063700
     42 H115         2.2920    -3.0200     1.3960 hc         1 TIR       0.040700
     43 H215         1.3670    -2.6630    -0.0470 hc         1 TIR       0.040700
     44 H315         3.0900    -3.0110    -0.1730 hc         1 TIR       0.040700
     45 H16          5.5680    -0.9900     2.5450 h1         1 TIR       0.048700
     46 H17          6.7960    -0.9560     0.1740 ha         1 TIR       0.179000
     47 H119         6.5960     2.3380    -0.8090 hc         1 TIR       0.045367
     48 H219         7.0760     0.7650    -1.4380 hc         1 TIR       0.045367
     49 H319         5.5740     1.5170    -1.9740 hc         1 TIR       0.045367
     50 H120         2.1950     1.3950    -2.8960 hc         1 TIR       0.040367
     51 H220         3.0380    -0.0580    -3.4370 hc         1 TIR       0.040367
     52 H320         1.3190     0.1450    -3.7770 hc         1 TIR       0.040367
     53 H121        -1.8370    -1.6590    -2.4380 hc         1 TIR       0.047700
     54 H221        -0.2140    -2.2360    -2.0960 hc         1 TIR       0.047700
     55 H321        -1.4730    -2.3780    -0.8780 hc         1 TIR       0.047700
     56 HN          -8.5840     0.6260     0.9610 hn         1 TIR       0.330500
     57 H12         -8.0200    -0.9300    -1.0210 h1         1 TIR       0.066200
     58 HO4          5.9580    -2.9450     1.5470 ho         1 TIR       0.505000
@<TRIPOS>BOND
     1     1     2 1   
     2     1    29 1   
     3     1    56 1   
     4     2     4 1   
     5     2    30 1   
     6     2    57 1   
     7     3     4 2   
     8     4     6 1   
     9     5    17 1   
    10     5    18 1   
    11     6     8 2   
    12     6    29 1   
    13     7    18 1   
    14     7    20 1   
    15     8    10 1   
    16     8    11 1   
    17     9    23 1   
    18     9    58 1   
    19    10    12 2   
    20    10    32 1   
    21    11    31 1   
    22    12    14 1   
    23    12    33 1   
    24    13    29 2   
    25    14    15 2   
    26    14    28 1   
    27    15    16 1   
    28    15    34 1   
    29    16    17 1   
    30    16    27 1   
    31    16    35 1   
    32    17    21 1   
    33    17    36 1   
    34    18    19 1   
    35    18    25 1   
    36    19    37 1   
    37    19    38 1   
    38    19    39 1   
    39    20    21 1   
    40    20    23 1   
    41    20    40 1   
    42    21    22 1   
    43    21    41 1   
    44    22    42 1   
    45    22    43 1   
    46    22    44 1   
    47    23    24 1   
    48    23    45 1   
    49    24    25 2   
    50    24    46 1   
    51    25    26 1   
    52    26    47 1   
    53    26    48 1   
    54    26    49 1   
    55    27    50 1   
    56    27    51 1   
    57    27    52 1   
    58    28    53 1   
    59    28    54 1   
    60    28    55 1   
@<TRIPOS>SUBSTRUCTURE
     1 TIR         1 TEMP              0 ****  ****    0 ROOT
