@<TRIPOS>MOLECULE
TIS
   21    20     1     0     0
SMALL
No Charge or Current Charge


@<TRIPOS>ATOM
      1 N           15.0060    49.0140     0.2300 n8         1 TIS      -0.967200
      2 CA          15.6150    49.2180    -1.1460 c3         1 TIS      -0.000500
      3 CB          17.1300    49.5360    -1.0410 c3         1 TIS       0.152600
      4 OG          17.6020    49.9240    -2.3510 os         1 TIS      -0.475000
      5 C           15.3750    48.0580    -2.1920 c          1 TIS       0.743000
      6 O           14.3240    48.0520    -2.8200 o          1 TIS      -0.713000
      7 C1T         18.8570    49.4060    -2.7700 c3         1 TIS       0.627000
      8 O1T         19.8380    49.6160    -1.8020 oh         1 TIS      -0.754000
      9 O2T         18.7670    48.0320    -2.9450 oh         1 TIS      -0.754000
     10 C2T         19.2410    50.0890    -4.0930 c3         1 TIS      -0.107100
     11 HN          15.4200    48.1810     0.6680 hn         1 TIS       0.366500
     12 HNA         15.2830    49.7850     0.8490 hn         1 TIS       0.366500
     13 HA          15.1340    50.1090    -1.5730 h1         1 TIS       0.058700
     14 HB          17.2920    50.3570    -0.3290 h1         1 TIS       0.020700
     15 HBA         17.6560    48.6520    -0.6560 h1         1 TIS       0.020700
     16 OXT         16.2550    47.2170    -2.3470 o          1 TIS      -0.713000
     17 H2T         19.3500    51.1710    -3.9510 hc         1 TIS       0.038700
     18 H2TA        20.1890    49.6970    -4.4800 hc         1 TIS       0.038700
     19 H2TB        18.4690    49.9200    -4.8520 hc         1 TIS       0.038700
     20 H9          20.6700    49.4120    -2.2740 ho         1 TIS       0.504500
     21 H10         17.8530    47.8210    -2.6210 ho         1 TIS       0.504500
@<TRIPOS>BOND
     1     1     2 1   
     2     1    11 1   
     3     1    12 1   
     4     2     3 1   
     5     2     5 1   
     6     2    13 1   
     7     3     4 1   
     8     3    14 1   
     9     3    15 1   
    10     4     7 1   
    11     5     6 1   
    12     5    16 1   
    13     7     8 1   
    14     7     9 1   
    15     7    10 1   
    16     8    20 1   
    17     9    21 1   
    18    10    17 1   
    19    10    18 1   
    20    10    19 1   
@<TRIPOS>SUBSTRUCTURE
     1 TIS         1 TEMP              0 ****  ****    0 ROOT
