@<TRIPOS>MOLECULE
TIS
   21    20     1     0     0
SMALL
bcc


@<TRIPOS>ATOM
      1 N           15.0820    48.8630     0.0780 n8         1 TIS      -0.856800
      2 CA          15.6880    49.2740    -1.1860 c3         1 TIS      -0.000500
      3 CB          17.1660    49.5990    -1.0230 c3         1 TIS       0.129400
      4 OG          17.7010    50.0440    -2.2610 os         1 TIS      -0.428600
      5 C           15.3870    48.1870    -2.2450 c          1 TIS       0.953600
      6 O           14.2290    48.1390    -2.6730 o          1 TIS      -0.818300
      7 C1T         18.8730    49.4430    -2.7060 c3         1 TIS       0.557400
      8 O1T         19.8890    49.8350    -1.8190 oh         1 TIS      -0.691800
      9 O2T         18.7960    48.0650    -2.7170 oh         1 TIS      -0.691800
     10 C2T         19.1380    49.9870    -4.1060 c3         1 TIS      -0.107100
     11 HN          15.5880    48.0690     0.4520 hn         1 TIS       0.311300
     12 HNA         15.1900    49.6040     0.7610 hn         1 TIS       0.311300
     13 HA          15.1700    50.1840    -1.5060 h1         1 TIS       0.058700
     14 HB          17.2760    50.3960    -0.2780 h1         1 TIS       0.020700
     15 HBA         17.6940    48.7260    -0.6290 h1         1 TIS       0.020700
     16 OXT         16.3170    47.3980    -2.5740 o          1 TIS      -0.818300
     17 H2T         19.2320    51.0740    -4.1030 hc         1 TIS       0.038700
     18 H2TA        20.0660    49.5700    -4.5000 hc         1 TIS       0.038700
     19 H2TB        18.3330    49.7130    -4.7880 hc         1 TIS       0.038700
     20 H9          20.6790    49.3150    -2.0040 ho         1 TIS       0.465500
     21 H10         17.8320    47.7820    -2.6700 ho         1 TIS       0.465500
@<TRIPOS>BOND
     1     1     2 1   
     2     1    11 1   
     3     1    12 1   
     4     2     3 1   
     5     2     5 1   
     6     2    13 1   
     7     3     4 1   
     8     3    14 1   
     9     3    15 1   
    10     4     7 1   
    11     5     6 1   
    12     5    16 1   
    13     7     8 1   
    14     7     9 1   
    15     7    10 1   
    16     8    20 1   
    17     9    21 1   
    18    10    17 1   
    19    10    18 1   
    20    10    19 1   
@<TRIPOS>SUBSTRUCTURE
     1 TIS         1 TEMP              0 ****  ****    0 ROOT
