@<TRIPOS>MOLECULE
TIT
   91    92     1     0     0
SMALL
abcg2


@<TRIPOS>ATOM
      1 C22         -4.0810    -3.7040     0.5470 ca         1 TIT      -0.078300
      2 C23         -3.0600    -3.9700    -0.3600 ca         1 TIT      -0.096500
      3 C24         -3.2660    -4.8310    -1.4290 ca         1 TIT      -0.086500
      4 C25         -4.5050    -5.4340    -1.5880 ca         1 TIT      -0.015900
      5 C26         -5.5370    -5.1860    -0.6960 ca         1 TIT      -0.086500
      6 C27         -5.3160    -4.3180     0.3630 ca         1 TIT      -0.096500
      7 C21         -3.8670    -2.8080     1.7350 c3         1 TIT       0.209900
      8 C20         -2.3810    -1.1960     2.5910 c3         1 TIT       0.151600
      9 O07         -2.7920    -1.9490     1.4810 os         1 TIT      -0.460000
     10 BR          -4.7920    -6.6060    -3.0420 br         1 TIT      -0.101100
     11 C08         -1.2600    -0.2590     2.1710 c3         1 TIT       0.075700
     12 C07          0.0630    -0.9780     1.8560 c3         1 TIT       0.178300
     13 C06          1.2320     0.0040     1.8070 c3         1 TIT      -0.196400
     14 C05          2.5430    -0.7250     1.6070 c          1 TIT       0.614100
     15 O03          2.8510    -1.6950     2.2860 o          1 TIT      -0.610100
     16 O04          0.0140    -1.7560     0.6850 oh         1 TIT      -0.639000
     17 N04         -1.7100     0.5600     1.0600 ns         1 TIT      -0.505900
     18 N02          6.8320     0.2080    -0.0330 ns         1 TIT      -0.478900
     19 C02          7.7910     1.0830    -0.6530 c3         1 TIT       0.030700
     20 C29          9.2100     0.6880    -0.2370 c3         1 TIT      -0.085400
     21 C30          9.4760     0.7310     1.2700 c3         1 TIT      -0.058700
     22 C31         10.9200     0.3190     1.5400 c3         1 TIT      -0.091100
     23 C32          9.1840     2.1020     1.8700 c3         1 TIT      -0.091100
     24 C01          7.6690     1.0070    -2.1790 c          1 TIT       0.592100
     25 O01          7.2740     0.0000    -2.7410 o          1 TIT      -0.600100
     26 N03          3.3400    -0.2120     0.6580 ns         1 TIT      -0.498900
     27 C04          4.6430    -0.7390     0.3380 c3         1 TIT       0.037700
     28 C28          4.5750    -1.8390    -0.7250 c3         1 TIT      -0.107100
     29 C03          5.5140     0.4040    -0.1660 c          1 TIT       0.593100
     30 O02          5.0370     1.4070    -0.6750 o          1 TIT      -0.611100
     31 N05         -2.6760     3.8450     0.1560 ns         1 TIT      -0.479900
     32 C10         -2.1900     2.5460    -0.2310 c3         1 TIT       0.041700
     33 C17         -1.1880     2.6350    -1.4090 c3         1 TIT      -0.074700
     34 C18          0.0330     3.4910    -1.0960 c3         1 TIT      -0.089600
     35 C19         -0.7720     1.2630    -1.9290 c3         1 TIT      -0.089600
     36 C09         -1.5780     1.8960     1.0040 c          1 TIT       0.591100
     37 O05         -0.9960     2.5570     1.8500 o          1 TIT      -0.605100
     38 C12         -4.0260     5.8130     0.1110 ca         1 TIT       0.286500
     39 C16         -3.4920     7.4790     1.5730 ca         1 TIT       0.337900
     40 C15         -4.5420     8.2730     1.1300 ca         1 TIT      -0.146000
     41 C13         -5.0990     6.5280    -0.4010 ca         1 TIT      -0.104000
     42 C14         -5.3590     7.7850     0.1240 ca         1 TIT      -0.083000
     43 O06         -4.3700     3.9620    -1.3440 o          1 TIT      -0.612100
     44 N06         -3.2400     6.2780     1.0760 nb         1 TIT      -0.670000
     45 H23         -2.0900    -3.5060    -0.2430 ha         1 TIT       0.127500
     46 H24         -2.4600    -5.0240    -2.1250 ha         1 TIT       0.130000
     47 H26         -6.5060    -5.6510    -0.8170 ha         1 TIT       0.130000
     48 H27         -6.1260    -4.1200     1.0540 ha         1 TIT       0.127500
     49 H211        -3.6680    -3.4280     2.6210 h1         1 TIT       0.033700
     50 H212        -4.7860    -2.2450     1.9500 h1         1 TIT       0.033700
     51 H201        -2.0270    -1.8410     3.4060 h1         1 TIT       0.036200
     52 H202        -3.2140    -0.6000     2.9890 h1         1 TIT       0.036200
     53 H08         -1.0750     0.4000     3.0220 h1         1 TIT       0.086700
     54 H07          0.2460    -1.6790     2.6740 h1         1 TIT       0.095700
     55 H061         1.2910     0.5490     2.7530 hc         1 TIT       0.072200
     56 H062         1.0780     0.7560     1.0280 hc         1 TIT       0.072200
     57 HA          -0.2160    -1.1900    -0.0590 ho         1 TIT       0.440000
     58 H011         8.3540     2.9400    -2.3220 hn         1 TIT       0.315000
     59 H012         8.0910     2.1480    -3.8240 hn         1 TIT       0.315000
     60 H04         -2.3240     0.1190     0.3920 hn         1 TIT       0.331500
     61 H02          7.1570    -0.6820     0.3100 hn         1 TIT       0.324500
     62 HB           7.5950     2.1100    -0.3340 h1         1 TIT       0.077700
     63 H291         9.9120     1.3600    -0.7390 hc         1 TIT       0.054700
     64 H292         9.4210    -0.3180    -0.6150 hc         1 TIT       0.054700
     65 H30          8.8270    -0.0010     1.7630 hc         1 TIT       0.047700
     66 H311        11.1240     0.2840     2.6110 hc         1 TIT       0.036200
     67 H312        11.1370    -0.6680     1.1280 hc         1 TIT       0.036200
     68 H313        11.6210     1.0280     1.0920 hc         1 TIT       0.036200
     69 H321         9.7590     2.8820     1.3650 hc         1 TIT       0.036200
     70 H322         8.1290     2.3690     1.7990 hc         1 TIT       0.036200
     71 H323         9.4500     2.1260     2.9280 hc         1 TIT       0.036200
     72 H03          3.0300     0.5850     0.1240 hn         1 TIT       0.335500
     73 HC           5.0820    -1.1510     1.2490 h1         1 TIT       0.081700
     74 H281         4.1230    -1.4640    -1.6430 hc         1 TIT       0.053367
     75 H282         5.5690    -2.2180    -0.9640 hc         1 TIT       0.053367
     76 H283         3.9760    -2.6710    -0.3590 hc         1 TIT       0.053367
     77 H05         -2.1970     4.3480     0.8910 hn         1 TIT       0.364500
     78 H10         -3.0420     1.9500    -0.5670 h1         1 TIT       0.078700
     79 H17         -1.7520     3.1270    -2.2080 hc         1 TIT       0.068700
     80 H181         0.6760     3.0270    -0.3460 hc         1 TIT       0.038367
     81 H182         0.6300     3.6250    -1.9980 hc         1 TIT       0.038367
     82 H183        -0.2420     4.4820    -0.7370 hc         1 TIT       0.038367
     83 H191        -1.6260     0.5990    -2.0830 hc         1 TIT       0.038367
     84 H192        -0.2650     1.3650    -2.8880 hc         1 TIT       0.038367
     85 H193        -0.0700     0.7660    -1.2550 hc         1 TIT       0.038367
     86 H16         -2.8320     7.8290     2.3580 h4         1 TIT       0.024100
     87 H15         -4.7080     9.2480     1.5660 ha         1 TIT       0.126000
     88 H13         -5.7120     6.1130    -1.1880 ha         1 TIT       0.149000
     89 H14         -6.1870     8.3740    -0.2500 ha         1 TIT       0.124000
     90 C11         -3.7110     4.4490    -0.4360 c          1 TIT       0.508600
     91 N01          8.0770     2.1110    -2.8180 nt         1 TIT      -0.603000
@<TRIPOS>BOND
     1     1     2 ar  
     2     1     6 ar  
     3     1     7 1   
     4     2     3 ar  
     5     2    45 1   
     6     3     4 ar  
     7     3    46 1   
     8     4     5 ar  
     9     4    10 1   
    10     5     6 ar  
    11     5    47 1   
    12     6    48 1   
    13     7     9 1   
    14     7    49 1   
    15     7    50 1   
    16     8     9 1   
    17     8    11 1   
    18     8    51 1   
    19     8    52 1   
    20    11    12 1   
    21    11    17 1   
    22    11    53 1   
    23    12    13 1   
    24    12    16 1   
    25    12    54 1   
    26    13    14 1   
    27    13    55 1   
    28    13    56 1   
    29    14    15 2   
    30    14    26 1   
    31    16    57 1   
    32    17    36 1   
    33    17    60 1   
    34    18    19 1   
    35    18    29 1   
    36    18    61 1   
    37    19    20 1   
    38    19    24 1   
    39    19    62 1   
    40    20    21 1   
    41    20    63 1   
    42    20    64 1   
    43    21    22 1   
    44    21    23 1   
    45    21    65 1   
    46    22    66 1   
    47    22    67 1   
    48    22    68 1   
    49    23    69 1   
    50    23    70 1   
    51    23    71 1   
    52    24    25 2   
    53    24    91 1   
    54    26    27 1   
    55    26    72 1   
    56    27    28 1   
    57    27    29 1   
    58    27    73 1   
    59    28    74 1   
    60    28    75 1   
    61    28    76 1   
    62    29    30 2   
    63    31    32 1   
    64    31    77 1   
    65    31    90 1   
    66    32    33 1   
    67    32    36 1   
    68    32    78 1   
    69    33    34 1   
    70    33    35 1   
    71    33    79 1   
    72    34    80 1   
    73    34    81 1   
    74    34    82 1   
    75    35    83 1   
    76    35    84 1   
    77    35    85 1   
    78    36    37 2   
    79    38    41 ar  
    80    38    44 ar  
    81    38    90 1   
    82    39    40 ar  
    83    39    44 ar  
    84    39    86 1   
    85    40    42 ar  
    86    40    87 1   
    87    41    42 ar  
    88    41    88 1   
    89    42    89 1   
    90    43    90 2   
    91    58    91 1   
    92    59    91 1   
@<TRIPOS>SUBSTRUCTURE
     1 TIT         1 TEMP              0 ****  ****    0 ROOT
