@<TRIPOS>MOLECULE
TIT
   91    92     1     0     0
SMALL
No Charge or Current Charge


@<TRIPOS>ATOM
      1 C22         -3.4800    -3.8070    -0.4160 ca         1 TIT      -0.078300
      2 C23         -2.7040    -4.9530    -0.6820 ca         1 TIT      -0.096500
      3 C24         -2.6020    -5.4510    -1.9940 ca         1 TIT      -0.086500
      4 C25         -3.2740    -4.8040    -3.0430 ca         1 TIT      -0.015900
      5 C26         -4.0470    -3.6590    -2.7870 ca         1 TIT      -0.086500
      6 C27         -4.1490    -3.1610    -1.4760 ca         1 TIT      -0.096500
      7 C21         -3.5850    -3.2610     1.0000 c3         1 TIT       0.209900
      8 C20         -2.5520    -1.6310     2.4640 c3         1 TIT       0.151600
      9 O07         -2.5830    -2.2460     1.1610 os         1 TIT      -0.460000
     10 Br          -3.1350    -5.4800    -4.8270 br         1 TIT      -0.101100
     11 C08         -1.4500    -0.5410     2.4580 c3         1 TIT       0.075700
     12 C07         -0.0170    -1.1440     2.3010 c3         1 TIT       0.178300
     13 C06          1.1090    -0.0960     2.4130 c3         1 TIT      -0.196400
     14 C05          2.4750    -0.7670     2.4760 c          1 TIT       0.614100
     15 O03          2.8800    -1.3360     3.4800 o          1 TIT      -0.610100
     16 O04          0.0950    -1.7930     1.0290 oh         1 TIT      -0.639000
     17 N04         -1.7480     0.4740     1.4290 ns         1 TIT      -0.505900
     18 N02          6.6760    -0.7190    -0.1200 ns         1 TIT      -0.478900
     19 C02          7.5890    -0.1400    -1.1340 c3         1 TIT       0.030700
     20 C29          8.4320     1.0260    -0.5350 c3         1 TIT      -0.085400
     21 C30          7.6320     2.2760    -0.0690 c3         1 TIT      -0.058700
     22 C31          8.5360     3.2420     0.7320 c3         1 TIT      -0.091100
     23 C32          6.9530     3.0200    -1.2440 c3         1 TIT      -0.091100
     24 C01          8.4910    -1.2580    -1.7420 c          1 TIT       0.592100
     25 O01          8.5080    -2.4120    -1.3400 o          1 TIT      -0.600100
     26 N03          3.2430    -0.6360     1.3420 ns         1 TIT      -0.498900
     27 C04          4.6030    -1.1850     1.1580 c3         1 TIT       0.037700
     28 C28          4.5500    -2.7160     0.9350 c3         1 TIT      -0.107100
     29 C03          5.3250    -0.4550    -0.0120 c          1 TIT       0.593100
     30 O02          4.7460     0.3000    -0.7840 o          1 TIT      -0.611100
     31 N05         -2.4230     4.0490     0.7850 ns         1 TIT      -0.479900
     32 C10         -2.0180     2.6950     0.3470 c3         1 TIT       0.041700
     33 C17         -0.8740     2.7760    -0.7170 c3         1 TIT      -0.074700
     34 C18          0.4240     3.4240    -0.1710 c3         1 TIT      -0.089600
     35 C19         -0.5750     1.4180    -1.3960 c3         1 TIT      -0.089600
     36 C09         -1.6490     1.8390     1.5970 c          1 TIT       0.591100
     37 O05         -1.3230     2.3330     2.6710 o          1 TIT      -0.605100
     38 C12         -3.4440     6.2900     0.7430 ca         1 TIT       0.286500
     39 C16         -3.1000     7.7270     2.5590 ca         1 TIT       0.337900
     40 C15         -3.8700     8.7400     1.9660 ca         1 TIT      -0.146000
     41 C13         -4.2310     7.2680     0.0920 ca         1 TIT      -0.104000
     42 C14         -4.4490     8.5110     0.7080 ca         1 TIT      -0.083000
     43 O06         -3.6710     4.6300    -1.0270 o          1 TIT      -0.612100
     44 N06         -2.8850     6.5270     1.9700 nb         1 TIT      -0.670000
     45 H23         -2.1780    -5.4560     0.1260 ha         1 TIT       0.127500
     46 H24         -2.0020    -6.3360    -2.1940 ha         1 TIT       0.130000
     47 H26         -4.5650    -3.1570    -3.6010 ha         1 TIT       0.130000
     48 H27         -4.7450    -2.2720    -1.2820 ha         1 TIT       0.127500
     49 H211        -3.4330    -4.0740     1.7230 h1         1 TIT       0.033700
     50 H212        -4.5880    -2.8460     1.1610 h1         1 TIT       0.033700
     51 H201        -2.3340    -2.3740     3.2430 h1         1 TIT       0.036200
     52 H202        -3.5190    -1.1650     2.6950 h1         1 TIT       0.036200
     53 H08         -1.4900    -0.0550     3.4430 h1         1 TIT       0.086700
     54 H07          0.1190    -1.8780     3.1100 h1         1 TIT       0.095700
     55 H061         0.9620     0.4720     3.3380 hc         1 TIT       0.072200
     56 H062         1.0580     0.5760     1.5500 hc         1 TIT       0.072200
     57 HA          -0.8180    -2.1150     0.8240 ho         1 TIT       0.440000
     58 H011         9.2890     0.0500    -3.1130 hn         1 TIT       0.315000
     59 H012         9.8970    -1.5920    -3.1890 hn         1 TIT       0.315000
     60 H04         -2.0420     0.1450     0.5170 hn         1 TIT       0.331500
     61 H02          7.0620    -1.3870     0.5380 hn         1 TIT       0.324500
     62 HB           6.9960     0.2460    -1.9730 h1         1 TIT       0.077700
     63 H291         9.1760     1.3550    -1.2700 hc         1 TIT       0.054700
     64 H292         9.0010     0.6290     0.3150 hc         1 TIT       0.054700
     65 H30          6.8420     1.9440     0.6160 hc         1 TIT       0.047700
     66 H311         7.9600     4.1010     1.0960 hc         1 TIT       0.036200
     67 H312         8.9700     2.7360     1.6020 hc         1 TIT       0.036200
     68 H313         9.3560     3.6180     0.1080 hc         1 TIT       0.036200
     69 H321         7.7000     3.3690    -1.9680 hc         1 TIT       0.036200
     70 H322         6.2420     2.3750    -1.7710 hc         1 TIT       0.036200
     71 H323         6.3990     3.8930    -0.8790 hc         1 TIT       0.036200
     72 H03          2.8240    -0.1350     0.5660 hn         1 TIT       0.335500
     73 HC           5.1860    -0.9810     2.0660 h1         1 TIT       0.081700
     74 H281         3.9860    -2.9550     0.0260 hc         1 TIT       0.053367
     75 H282         5.5590    -3.1330     0.8330 hc         1 TIT       0.053367
     76 H283         4.0650    -3.2170     1.7810 hc         1 TIT       0.053367
     77 H05         -2.1020     4.3850     1.6900 hn         1 TIT       0.364500
     78 H10         -2.8920     2.2170    -0.1150 h1         1 TIT       0.078700
     79 H17         -1.2360     3.4330    -1.5170 hc         1 TIT       0.068700
     80 H181         0.8590     2.8240     0.6370 hc         1 TIT       0.038367
     81 H182         1.1740     3.5130    -0.9670 hc         1 TIT       0.038367
     82 H183         0.2300     4.4310     0.2160 hc         1 TIT       0.038367
     83 H191        -1.4980     0.9530    -1.7640 hc         1 TIT       0.038367
     84 H192         0.0920     1.5590    -2.2550 hc         1 TIT       0.038367
     85 H193        -0.0840     0.7220    -0.7060 hc         1 TIT       0.038367
     86 H16         -2.6390     7.8790     3.5340 h4         1 TIT       0.024100
     87 H15         -4.0120     9.6860     2.4800 ha         1 TIT       0.126000
     88 H13         -4.6650     7.0600    -0.8830 ha         1 TIT       0.149000
     89 H14         -5.0520     9.2770     0.2230 ha         1 TIT       0.124000
     90 C11         -3.2060     4.9340     0.0680 c          1 TIT       0.508600
     91 N01          9.2960    -0.8980    -2.7680 nt         1 TIT      -0.603000
@<TRIPOS>BOND
     1     1     2 ar  
     2     1     6 ar  
     3     1     7 1   
     4     2     3 ar  
     5     2    45 1   
     6     3     4 ar  
     7     3    46 1   
     8     4     5 ar  
     9     4    10 1   
    10     5     6 ar  
    11     5    47 1   
    12     6    48 1   
    13     7     9 1   
    14     7    49 1   
    15     7    50 1   
    16     8     9 1   
    17     8    11 1   
    18     8    51 1   
    19     8    52 1   
    20    11    12 1   
    21    11    17 1   
    22    11    53 1   
    23    12    13 1   
    24    12    16 1   
    25    12    54 1   
    26    13    14 1   
    27    13    55 1   
    28    13    56 1   
    29    14    15 2   
    30    14    26 1   
    31    16    57 1   
    32    17    36 1   
    33    17    60 1   
    34    18    19 1   
    35    18    29 1   
    36    18    61 1   
    37    19    20 1   
    38    19    24 1   
    39    19    62 1   
    40    20    21 1   
    41    20    63 1   
    42    20    64 1   
    43    21    22 1   
    44    21    23 1   
    45    21    65 1   
    46    22    66 1   
    47    22    67 1   
    48    22    68 1   
    49    23    69 1   
    50    23    70 1   
    51    23    71 1   
    52    24    25 2   
    53    24    91 1   
    54    26    27 1   
    55    26    72 1   
    56    27    28 1   
    57    27    29 1   
    58    27    73 1   
    59    28    74 1   
    60    28    75 1   
    61    28    76 1   
    62    29    30 2   
    63    31    32 1   
    64    31    77 1   
    65    31    90 1   
    66    32    33 1   
    67    32    36 1   
    68    32    78 1   
    69    33    34 1   
    70    33    35 1   
    71    33    79 1   
    72    34    80 1   
    73    34    81 1   
    74    34    82 1   
    75    35    83 1   
    76    35    84 1   
    77    35    85 1   
    78    36    37 2   
    79    38    41 ar  
    80    38    44 ar  
    81    38    90 1   
    82    39    40 ar  
    83    39    44 ar  
    84    39    86 1   
    85    40    42 ar  
    86    40    87 1   
    87    41    42 ar  
    88    41    88 1   
    89    42    89 1   
    90    43    90 2   
    91    58    91 1   
    92    59    91 1   
@<TRIPOS>SUBSTRUCTURE
     1 TIT         1 TEMP              0 ****  ****    0 ROOT
