@<TRIPOS>MOLECULE
TIU
   16    15     1     0     0
SMALL
No Charge or Current Charge


@<TRIPOS>ATOM
      1 NAA         -5.6950    -2.8230    18.3640 nt         1 TIU      -0.610000
      2 CAB         -5.6460    -2.3250    19.6060 c          1 TIU       0.672600
      3 OAC         -6.6580    -2.1350    20.2520 o          1 TIU      -0.622100
      4 NAD         -4.3870    -2.0660    20.0440 ns         1 TIU      -0.493500
      5 CAE         -3.9300    -1.5650    21.2230 c          1 TIU       0.685100
      6 OAH         -2.7360    -1.4120    21.4070 o          1 TIU      -0.633100
      7 NAF         -4.8850    -1.2620    22.1450 ns         1 TIU      -0.493500
      8 CAG         -4.8100    -0.7570    23.4010 c          1 TIU       0.672600
      9 OAI         -5.8020    -0.5560    24.0710 o          1 TIU      -0.622100
     10 NAJ         -3.5860    -0.4870    23.8700 nt         1 TIU      -0.610000
     11 H1          -6.5970    -3.0420    17.9680 hn         1 TIU       0.335500
     12 H2          -4.8550    -2.9800    17.8300 hn         1 TIU       0.335500
     13 H3          -3.6500    -2.2760    19.3930 hn         1 TIU       0.355500
     14 H4          -5.8260    -1.4500    21.8320 hn         1 TIU       0.355500
     15 H5          -3.4780    -0.1100    24.7990 hn         1 TIU       0.335500
     16 H6          -2.7870    -0.6700    23.2780 hn         1 TIU       0.335500
@<TRIPOS>BOND
     1     1     2 1   
     2     1    11 1   
     3     1    12 1   
     4     2     3 2   
     5     2     4 1   
     6     4     5 1   
     7     4    13 1   
     8     5     6 2   
     9     5     7 1   
    10     7     8 1   
    11     7    14 1   
    12     8     9 2   
    13     8    10 1   
    14    10    15 1   
    15    10    16 1   
@<TRIPOS>SUBSTRUCTURE
     1 TIU         1 TEMP              0 ****  ****    0 ROOT
