@<TRIPOS>MOLECULE
TIU
   16    15     1     0     0
SMALL
bcc


@<TRIPOS>ATOM
      1 NAA         -5.7080    -2.8130    18.3430 nt         1 TIU      -0.677000
      2 CAB         -5.6510    -2.3300    19.5880 c          1 TIU       0.806600
      3 OAC         -6.6400    -2.1200    20.2800 o          1 TIU      -0.622100
      4 NAD         -4.3580    -2.0810    20.0320 ns         1 TIU      -0.627500
      5 CAE         -3.9370    -1.5760    21.2470 c          1 TIU       0.819100
      6 OAH         -2.7450    -1.4150    21.4430 o          1 TIU      -0.633100
      7 NAF         -4.9200    -1.2960    22.1450 ns         1 TIU      -0.627500
      8 CAG         -4.8000    -0.7530    23.4280 c          1 TIU       0.806600
      9 OAI         -5.8200    -0.5620    24.0700 o          1 TIU      -0.622100
     10 NAJ         -3.5680    -0.4820    23.8680 nt         1 TIU      -0.677000
     11 H1          -6.6060    -3.0290    17.9430 hn         1 TIU       0.335500
     12 H2          -4.8940    -2.9860    17.7790 hn         1 TIU       0.335500
     13 H3          -3.5940    -2.2840    19.4030 hn         1 TIU       0.355500
     14 H4          -5.8730    -1.4800    21.8380 hn         1 TIU       0.355500
     15 H5          -3.4630    -0.0670    24.7780 hn         1 TIU       0.335500
     16 H6          -2.7520    -0.6420    23.3000 hn         1 TIU       0.335500
@<TRIPOS>BOND
     1     1     2 1   
     2     1    11 1   
     3     1    12 1   
     4     2     3 2   
     5     2     4 1   
     6     4     5 1   
     7     4    13 1   
     8     5     6 2   
     9     5     7 1   
    10     7     8 1   
    11     7    14 1   
    12     8     9 2   
    13     8    10 1   
    14    10    15 1   
    15    10    16 1   
@<TRIPOS>SUBSTRUCTURE
     1 TIU         1 TEMP              0 ****  ****    0 ROOT
