@<TRIPOS>MOLECULE
TIV
   47    52     1     0     0
SMALL
abcg2


@<TRIPOS>ATOM
      1 C1          -1.3250     1.0420     0.2650 c5         1 TIV      -0.063500
      2 N1          -3.1090    -1.7960    -1.2670 na         1 TIV      -0.219700
      3 O1          -3.1750     2.6130     0.5950 o          1 TIV      -0.492000
      4 C2           1.1510     0.5530    -0.2200 cc         1 TIV      -0.142400
      5 N2          -1.1300     3.3280    -0.1440 ns         1 TIV      -0.489500
      6 O2           1.0340     3.4560    -0.8840 o          1 TIV      -0.490000
      7 C3           1.5640     0.2060     1.0440 cd         1 TIV      -0.129100
      8 N3           2.7610    -0.4410     0.9820 na         1 TIV      -0.079700
      9 C4          -2.1850    -0.1080    -0.1280 cc         1 TIV      -0.139400
     10 C5          -2.1740    -0.8030    -1.3050 cd         1 TIV      -0.137100
     11 C6          -0.0820     1.2960    -0.5950 c5         1 TIV      -0.063500
     12 C7          -2.0400     2.3840     0.2660 c          1 TIV       0.568000
     13 C8           0.0700     2.8090    -0.5670 c          1 TIV       0.567000
     14 C9          -3.7460    -1.7760    -0.0610 ca         1 TIV      -0.046200
     15 C10         -3.1880    -0.7210     0.6910 ca         1 TIV      -0.082800
     16 C11         -3.6590    -0.4830     1.9870 ca         1 TIV      -0.053000
     17 C12         -4.6560    -1.2940     2.4920 ca         1 TIV      -0.139000
     18 C13         -5.2020    -2.3370     1.7250 ca         1 TIV      -0.090000
     19 C14         -4.7580    -2.5930     0.4420 ca         1 TIV      -0.128000
     20 C15          4.2980    -1.1290    -0.7980 ca         1 TIV      -0.092300
     21 C16          5.2080    -1.7510     0.2250 c6         1 TIV      -0.021100
     22 C17          5.0210    -1.0770     1.5900 c6         1 TIV      -0.092400
     23 C18          3.5600    -1.0360     2.0350 c6         1 TIV       0.081600
     24 C19          3.1380    -0.5280    -0.3220 ca         1 TIV      -0.054200
     25 C20          2.1630     0.0880    -1.1190 ca         1 TIV      -0.073800
     26 C21          2.3750     0.1130    -2.5050 ca         1 TIV      -0.063000
     27 C22          3.5230    -0.4730    -3.0050 ca         1 TIV      -0.134000
     28 C23          4.4780    -1.0840    -2.1670 ca         1 TIV      -0.090000
     29 H02         -1.0070     0.9020     1.3070 hc         1 TIV       0.082700
     30 H04         -1.3270     4.3210    -0.1310 hn         1 TIV       0.339500
     31 H05          1.0860     0.3780     1.9970 h4         1 TIV       0.212000
     32 H06         -1.5600    -0.6760    -2.1820 h4         1 TIV       0.214000
     33 H07         -0.3250     1.0760    -1.6430 hc         1 TIV       0.083700
     34 H08         -3.2510     0.3220     2.5850 ha         1 TIV       0.116000
     35 H09         -5.0290    -1.1250     3.4940 ha         1 TIV       0.111000
     36 H10         -5.9850    -2.9530     2.1480 ha         1 TIV       0.110000
     37 H11         -5.1790    -3.3970    -0.1480 ha         1 TIV       0.113000
     38 H12          4.9860    -2.8190     0.3130 hc         1 TIV       0.053200
     39 H18          6.2510    -1.6770    -0.0890 hc         1 TIV       0.053200
     40 H13          5.5970    -1.6070     2.3500 hc         1 TIV       0.056200
     41 H19          5.4080    -0.0570     1.5480 hc         1 TIV       0.056200
     42 H17          3.4540    -0.4440     2.9430 h1         1 TIV       0.054200
     43 H14          3.1970    -2.0450     2.2500 h1         1 TIV       0.054200
     44 H15          1.6640     0.5800    -3.1760 ha         1 TIV       0.112000
     45 H16          3.7040    -0.4590    -4.0720 ha         1 TIV       0.110000
     46 H01          5.3650    -1.5230    -2.6070 ha         1 TIV       0.110000
     47 H03         -3.2830    -2.4470    -2.0140 hn         1 TIV       0.352000
@<TRIPOS>BOND
     1     1     9 1   
     2     1    11 1   
     3     1    12 1   
     4     1    29 1   
     5     2    10 1   
     6     2    14 1   
     7     2    47 1   
     8     3    12 2   
     9     4     7 2   
    10     4    11 1   
    11     4    25 1   
    12     5    12 1   
    13     5    13 1   
    14     5    30 1   
    15     6    13 2   
    16     7     8 1   
    17     7    31 1   
    18     8    23 1   
    19     8    24 1   
    20     9    10 2   
    21     9    15 1   
    22    10    32 1   
    23    11    13 1   
    24    11    33 1   
    25    14    15 ar  
    26    14    19 ar  
    27    15    16 ar  
    28    16    17 ar  
    29    16    34 1   
    30    17    18 ar  
    31    17    35 1   
    32    18    19 ar  
    33    18    36 1   
    34    19    37 1   
    35    20    21 1   
    36    20    24 ar  
    37    20    28 ar  
    38    21    22 1   
    39    21    38 1   
    40    21    39 1   
    41    22    23 1   
    42    22    40 1   
    43    22    41 1   
    44    23    42 1   
    45    23    43 1   
    46    24    25 ar  
    47    25    26 ar  
    48    26    27 ar  
    49    26    44 1   
    50    27    28 ar  
    51    27    45 1   
    52    28    46 1   
@<TRIPOS>SUBSTRUCTURE
     1 TIV         1 TEMP              0 ****  ****    0 ROOT
