@<TRIPOS>MOLECULE
TIV
   47    52     1     0     0
SMALL
No Charge or Current Charge


@<TRIPOS>ATOM
      1 C1          -1.1780     1.1610     0.5930 c5         1 TIV      -0.063500
      2 N1          -4.6220     0.5250    -0.7730 na         1 TIV      -0.219700
      3 O1          -1.6640     3.0700     2.1560 o          1 TIV      -0.492000
      4 C2           1.1740     0.6570    -0.1860 cc         1 TIV      -0.142400
      5 N2          -0.6840     3.3440     0.1120 ns         1 TIV      -0.489500
      6 O2           0.2990     3.3080    -1.9490 o          1 TIV      -0.490000
      7 C3           2.1500     1.3550     0.5390 cd         1 TIV      -0.129100
      8 N3           3.2260     0.4770     0.7840 na         1 TIV      -0.079700
      9 C4          -2.5050     0.6090     0.1080 cc         1 TIV      -0.139400
     10 C5          -3.5710     1.3790    -0.3560 cd         1 TIV      -0.137100
     11 C6          -0.1640     1.2340    -0.6060 c5         1 TIV      -0.063500
     12 C7          -1.2690     2.6190     1.0930 c          1 TIV       0.568000
     13 C8          -0.0900     2.7390    -0.9420 c          1 TIV       0.567000
     14 C9          -4.1720    -0.7660    -0.5610 ca         1 TIV      -0.046200
     15 C10         -2.9120    -0.7580    -0.0330 ca         1 TIV      -0.082800
     16 C11         -2.2310    -1.9410     0.2830 ca         1 TIV      -0.053000
     17 C12         -2.8850    -3.1660     0.0310 ca         1 TIV      -0.139000
     18 C13         -4.1880    -3.1790    -0.5200 ca         1 TIV      -0.090000
     19 C14         -4.8470    -1.9660    -0.8200 ca         1 TIV      -0.128000
     20 C15          3.6810    -1.8820     0.2840 ca         1 TIV      -0.092300
     21 C16          5.0290    -1.8090     1.0080 c6         1 TIV      -0.021100
     22 C17          5.5560    -0.3400     1.0990 c6         1 TIV      -0.092400
     23 C18          4.4650     0.6760     1.5630 c6         1 TIV       0.081600
     24 C19          2.8940    -0.7330     0.2410 ca         1 TIV      -0.054200
     25 C20          1.6770    -0.6830    -0.3590 ca         1 TIV      -0.073800
     26 C21          1.1370    -1.8130    -0.9910 ca         1 TIV      -0.063000
     27 C22          1.9000    -3.0050    -0.9700 ca         1 TIV      -0.134000
     28 C23          3.1680    -3.0440    -0.3330 ca         1 TIV      -0.090000
     29 H02         -0.8260     0.5470     1.4290 hc         1 TIV       0.082700
     30 H04         -0.6900     4.3520     0.1670 hn         1 TIV       0.339500
     31 H05          2.1540     2.3780     0.9010 h4         1 TIV       0.212000
     32 H06         -3.6580     2.4610    -0.4340 h4         1 TIV       0.214000
     33 H07         -0.5080     0.7110    -1.5040 hc         1 TIV       0.083700
     34 H08         -1.2310    -1.9170     0.7110 ha         1 TIV       0.116000
     35 H09         -2.3840    -4.1030     0.2630 ha         1 TIV       0.111000
     36 H10         -4.6860    -4.1270    -0.7110 ha         1 TIV       0.110000
     37 H11         -5.8490    -1.9660    -1.2420 ha         1 TIV       0.113000
     38 H12          4.9130    -2.2200     2.0210 hc         1 TIV       0.053200
     39 H18          5.7700    -2.4400     0.4980 hc         1 TIV       0.053200
     40 H13          6.4250    -0.2900     1.7690 hc         1 TIV       0.056200
     41 H19          5.9170    -0.0350     0.1070 hc         1 TIV       0.056200
     42 H17          4.8230     1.7070     1.4340 h1         1 TIV       0.054200
     43 H14          4.2380     0.5200     2.6260 h1         1 TIV       0.054200
     44 H15          0.1660    -1.7750    -1.4780 ha         1 TIV       0.112000
     45 H16          1.5090    -3.9010    -1.4470 ha         1 TIV       0.110000
     46 H01          3.7430    -3.9670    -0.3210 ha         1 TIV       0.110000
     47 H03         -5.5200     0.8020    -1.1580 hn         1 TIV       0.352000
@<TRIPOS>BOND
     1     1     9 1   
     2     1    11 1   
     3     1    12 1   
     4     1    29 1   
     5     2    10 1   
     6     2    14 1   
     7     2    47 1   
     8     3    12 2   
     9     4     7 2   
    10     4    11 1   
    11     4    25 1   
    12     5    12 1   
    13     5    13 1   
    14     5    30 1   
    15     6    13 2   
    16     7     8 1   
    17     7    31 1   
    18     8    23 1   
    19     8    24 1   
    20     9    10 2   
    21     9    15 1   
    22    10    32 1   
    23    11    13 1   
    24    11    33 1   
    25    14    15 ar  
    26    14    19 ar  
    27    15    16 ar  
    28    16    17 ar  
    29    16    34 1   
    30    17    18 ar  
    31    17    35 1   
    32    18    19 ar  
    33    18    36 1   
    34    19    37 1   
    35    20    21 1   
    36    20    24 ar  
    37    20    28 ar  
    38    21    22 1   
    39    21    38 1   
    40    21    39 1   
    41    22    23 1   
    42    22    40 1   
    43    22    41 1   
    44    23    42 1   
    45    23    43 1   
    46    24    25 ar  
    47    25    26 ar  
    48    26    27 ar  
    49    26    44 1   
    50    27    28 ar  
    51    27    45 1   
    52    28    46 1   
@<TRIPOS>SUBSTRUCTURE
     1 TIV         1 TEMP              0 ****  ****    0 ROOT
