@<TRIPOS>MOLECULE
TIW
   62    66     1     0     0
SMALL
No Charge or Current Charge


@<TRIPOS>ATOM
      1 C10         18.6910    -0.2530    -8.5650 c6         1 TIW      -0.074400
      2 C11         16.2920    -1.1530    -8.8370 c6         1 TIW       0.236800
      3 C12         18.5070    -1.0050    -7.2250 c6         1 TIW      -0.093400
      4 C13         17.1940    -0.5780    -6.5360 c6         1 TIW       0.226800
      5 C14         16.9410     1.1120    -9.8400 c          1 TIW       0.602100
      6 C15         14.7250    -0.9330    -6.8590 ca         1 TIW       0.459900
      7 C16         14.2340    -0.1760    -5.7800 ca         1 TIW      -0.281000
      8 C18         15.4780     3.0120    -9.0840 c3         1 TIW       0.151300
      9 C20         12.7070    -2.0360    -6.8640 ca         1 TIW       0.177900
     10 C09         17.4280    -0.3090    -9.4930 c6         1 TIW      -0.164700
     11 C17         12.9590    -0.3870    -5.2820 ca         1 TIW       0.005000
     12 C19         14.7930     0.9070    -5.0340 cc         1 TIW      -0.131100
     13 C21         14.3310     3.1830    -8.0970 ca         1 TIW      -0.132300
     14 C22         13.8960     2.3040    -3.2040 ca         1 TIW       0.006800
     15 C23         14.3070     4.2770    -7.2100 ca         1 TIW      -0.085500
     16 C24         13.2740     2.2550    -8.0710 ca         1 TIW      -0.085500
     17 C25         14.6930     3.4400    -3.4740 ca         1 TIW      -0.101500
     18 C26         13.1880     2.2510    -1.9830 ca         1 TIW      -0.101500
     19 C27         13.2400     4.4390    -6.3070 ca         1 TIW      -0.117500
     20 C28         12.2110     2.4150    -7.1670 ca         1 TIW      -0.117500
     21 C29         14.7790     4.4920    -2.5460 ca         1 TIW      -0.105000
     22 C30         13.2730     3.3060    -1.0580 ca         1 TIW      -0.105000
     23 C31         14.0700     4.4310    -1.3330 ca         1 TIW      -0.077300
     24 C32         12.1860     3.5030    -6.2770 ca         1 TIW      -0.080000
     25 C33         14.1550     5.5760    -0.3360 c3         1 TIW      -0.047800
     26 C34         11.2110     5.0270    -4.0010 c3         1 TIW       0.014900
     27 N03         16.0070    -0.7410    -7.4230 nh         1 TIW      -0.785300
     28 N04         16.1370     1.7230    -8.9100 ns         1 TIW      -0.501900
     29 N05         13.9340    -1.8750    -7.4120 nb         1 TIW      -0.314000
     30 N06         13.8040     1.2510    -4.1300 na         1 TIW       0.229700
     31 N07         12.6450     0.4830    -4.2310 nc         1 TIW      -0.255400
     32 N08         12.1810    -1.3420    -5.8270 nb         1 TIW      -0.188000
     33 O02         17.1670     1.6220   -10.9290 o          1 TIW      -0.606100
     34 S01         10.8000     3.6330    -5.1410 ss         1 TIW      -0.141000
     35 H102        18.9520     0.7930    -8.3500 hc         1 TIW       0.048700
     36 H101        19.5580    -0.6680    -9.0960 hc         1 TIW       0.048700
     37 H111        15.3900    -1.0540    -9.4600 h1         1 TIW       0.081700
     38 H112        16.5720    -2.2170    -8.8640 h1         1 TIW       0.081700
     39 H121        18.5030    -2.0900    -7.3950 hc         1 TIW       0.056200
     40 H122        19.3580    -0.8020    -6.5600 hc         1 TIW       0.056200
     41 H131        17.0650    -1.1680    -5.6170 h1         1 TIW       0.044200
     42 H132        17.2940     0.4760    -6.2430 h1         1 TIW       0.044200
     43 H182        16.2210     3.8090    -8.9480 h1         1 TIW       0.064200
     44 H181        15.0850     3.0830   -10.1070 h1         1 TIW       0.064200
     45 H201        12.0730    -2.8020    -7.3070 h5         1 TIW       0.044100
     46 H091        17.7200    -0.7760   -10.4430 hc         1 TIW       0.089700
     47 H191        15.7380     1.4290    -5.0680 h4         1 TIW       0.222000
     48 H231        15.1140     5.0060    -7.2190 ha         1 TIW       0.119000
     49 H241        13.2770     1.4030    -8.7480 ha         1 TIW       0.119000
     50 H251        15.2400     3.5250    -4.4090 ha         1 TIW       0.136500
     51 H261        12.5680     1.3900    -1.7420 ha         1 TIW       0.136500
     52 H271        13.2520     5.2940    -5.6380 ha         1 TIW       0.124500
     53 H281        11.4060     1.6840    -7.1500 ha         1 TIW       0.124500
     54 H291        15.3930     5.3610    -2.7760 ha         1 TIW       0.119000
     55 H301        12.7170     3.2470    -0.1240 ha         1 TIW       0.119000
     56 H332        13.3780     6.3240    -0.5340 hc         1 TIW       0.046033
     57 H331        14.0250     5.2210     0.6930 hc         1 TIW       0.046033
     58 H333        15.1270     6.0810    -0.3880 hc         1 TIW       0.046033
     59 H342        10.4180     5.1290    -3.2500 h1         1 TIW       0.064700
     60 H341        12.1600     4.8230    -3.4930 h1         1 TIW       0.064700
     61 H343        11.2900     5.9620    -4.5680 h1         1 TIW       0.064700
     62 H041        15.9340     1.1740    -8.0790 hn         1 TIW       0.308500
@<TRIPOS>BOND
     1     1     3 1   
     2     1    10 1   
     3     1    35 1   
     4     1    36 1   
     5     2    10 1   
     6     2    27 1   
     7     2    37 1   
     8     2    38 1   
     9     3     4 1   
    10     3    39 1   
    11     3    40 1   
    12     4    27 1   
    13     4    41 1   
    14     4    42 1   
    15     5    10 1   
    16     5    28 1   
    17     5    33 2   
    18     6     7 ar  
    19     6    27 1   
    20     6    29 ar  
    21     7    11 ar  
    22     7    12 2   
    23     8    13 1   
    24     8    28 1   
    25     8    43 1   
    26     8    44 1   
    27     9    29 ar  
    28     9    32 ar  
    29     9    45 1   
    30    10    46 1   
    31    11    31 2   
    32    11    32 ar  
    33    12    30 1   
    34    12    47 1   
    35    13    15 ar  
    36    13    16 ar  
    37    14    17 ar  
    38    14    18 ar  
    39    14    30 1   
    40    15    19 ar  
    41    15    48 1   
    42    16    20 ar  
    43    16    49 1   
    44    17    21 ar  
    45    17    50 1   
    46    18    22 ar  
    47    18    51 1   
    48    19    24 ar  
    49    19    52 1   
    50    20    24 ar  
    51    20    53 1   
    52    21    23 ar  
    53    21    54 1   
    54    22    23 ar  
    55    22    55 1   
    56    23    25 1   
    57    24    34 1   
    58    25    56 1   
    59    25    57 1   
    60    25    58 1   
    61    26    34 1   
    62    26    59 1   
    63    26    60 1   
    64    26    61 1   
    65    28    62 1   
    66    30    31 1   
@<TRIPOS>SUBSTRUCTURE
     1 TIW         1 TEMP              0 ****  ****    0 ROOT
