@<TRIPOS>MOLECULE
TIW
   62    66     1     0     0
SMALL
abcg2


@<TRIPOS>ATOM
      1 C10         18.5150    -0.0960    -8.7280 c6         1 TIW      -0.074400
      2 C11         16.3990    -1.4650    -8.5880 c6         1 TIW       0.236800
      3 C12         18.4680    -0.4120    -7.2260 c6         1 TIW      -0.093400
      4 C13         17.1110    -0.1120    -6.6060 c6         1 TIW       0.226800
      5 C14         16.2370     0.6690    -9.8150 c          1 TIW       0.602100
      6 C15         14.7940    -0.8870    -6.8300 ca         1 TIW       0.459900
      7 C16         14.3550    -0.1170    -5.7060 ca         1 TIW      -0.281000
      8 C18         15.5150     2.9980    -9.4080 c3         1 TIW       0.151300
      9 C20         12.6460    -1.7580    -6.9400 ca         1 TIW       0.177900
     10 C09         17.1960    -0.4670    -9.4420 c6         1 TIW      -0.164700
     11 C17         12.9970    -0.2940    -5.2940 ca         1 TIW       0.005000
     12 C19         14.8400     0.8760    -4.8620 cc         1 TIW      -0.131100
     13 C21         14.4900     3.1350    -8.3070 ca         1 TIW      -0.132300
     14 C22         13.8420     2.2210    -3.0440 ca         1 TIW       0.006800
     15 C23         14.6030     4.1340    -7.3460 ca         1 TIW      -0.085500
     16 C24         13.3910     2.2730    -8.2370 ca         1 TIW      -0.085500
     17 C25         14.7750     3.2520    -3.1090 ca         1 TIW      -0.101500
     18 C26         12.9150     2.1860    -2.0080 ca         1 TIW      -0.101500
     19 C27         13.6370     4.3040    -6.3570 ca         1 TIW      -0.117500
     20 C28         12.4230     2.4310    -7.2600 ca         1 TIW      -0.117500
     21 C29         14.7820     4.2340    -2.1280 ca         1 TIW      -0.105000
     22 C30         12.9280     3.1830    -1.0440 ca         1 TIW      -0.105000
     23 C31         13.8570     4.2240    -1.0830 ca         1 TIW      -0.077300
     24 C32         12.5250     3.4650    -6.3190 ca         1 TIW      -0.080000
     25 C33         13.8320     5.3250    -0.0580 c3         1 TIW      -0.047800
     26 C34         11.6400     5.0880    -4.1940 c3         1 TIW       0.014900
     27 N03         16.0490    -0.8410    -7.3100 nh         1 TIW      -0.785300
     28 N04         16.4130     1.8630    -9.2260 ns         1 TIW      -0.501900
     29 N05         13.8970    -1.6850    -7.4300 nb         1 TIW      -0.314000
     30 N06         13.8240     1.2130    -4.0430 na         1 TIW       0.229700
     31 N07         12.6850     0.5030    -4.2730 nc         1 TIW      -0.255400
     32 N08         12.1230    -1.1370    -5.9020 nb         1 TIW      -0.188000
     33 O02         15.3180     0.4470   -10.6080 o          1 TIW      -0.606100
     34 S01         11.1960     3.6310    -5.1680 ss         1 TIW      -0.141000
     35 H102        18.7680     0.9530    -8.8900 hc         1 TIW       0.048700
     36 H101        19.3270    -0.6650    -9.1820 hc         1 TIW       0.048700
     37 H111        15.4810    -1.7500    -9.0860 h1         1 TIW       0.081700
     38 H112        16.9920    -2.3670    -8.4240 h1         1 TIW       0.081700
     39 H121        18.7040    -1.4660    -7.0630 hc         1 TIW       0.056200
     40 H122        19.2240     0.1650    -6.6910 hc         1 TIW       0.056200
     41 H131        17.1100    -0.4110    -5.5570 h1         1 TIW       0.044200
     42 H132        16.9100     0.9630    -6.6420 h1         1 TIW       0.044200
     43 H182        16.1240     3.9010    -9.4580 h1         1 TIW       0.064200
     44 H181        15.0210     2.8650   -10.3690 h1         1 TIW       0.064200
     45 H201        11.9870    -2.4300    -7.4810 h5         1 TIW       0.044100
     46 H091        17.4160    -0.9610   -10.3890 hc         1 TIW       0.089700
     47 H191        15.8000     1.3470    -4.7750 h4         1 TIW       0.222000
     48 H231        15.4530     4.8070    -7.3720 ha         1 TIW       0.119000
     49 H241        13.2900     1.4750    -8.9620 ha         1 TIW       0.119000
     50 H251        15.4760     3.3120    -3.9290 ha         1 TIW       0.136500
     51 H261        12.1930     1.3850    -1.9650 ha         1 TIW       0.136500
     52 H271        13.7580     5.0980    -5.6350 ha         1 TIW       0.124500
     53 H281        11.5750     1.7590    -7.2320 ha         1 TIW       0.124500
     54 H291        15.5090     5.0340    -2.1910 ha         1 TIW       0.119000
     55 H301        12.2000     3.1480    -0.2410 ha         1 TIW       0.119000
     56 H332        13.1910     6.1460    -0.3930 hc         1 TIW       0.046033
     57 H331        13.4380     4.9690     0.8940 hc         1 TIW       0.046033
     58 H333        14.8290     5.7340     0.1070 hc         1 TIW       0.046033
     59 H342        10.8220     5.2230    -3.4890 h1         1 TIW       0.064700
     60 H341        12.5630     4.9240    -3.6430 h1         1 TIW       0.064700
     61 H343        11.7240     5.9720    -4.8240 h1         1 TIW       0.064700
     62 H041        17.1630     1.9810    -8.5680 hn         1 TIW       0.308500
@<TRIPOS>BOND
     1     1     3 1   
     2     1    10 1   
     3     1    35 1   
     4     1    36 1   
     5     2    10 1   
     6     2    27 1   
     7     2    37 1   
     8     2    38 1   
     9     3     4 1   
    10     3    39 1   
    11     3    40 1   
    12     4    27 1   
    13     4    41 1   
    14     4    42 1   
    15     5    10 1   
    16     5    28 1   
    17     5    33 2   
    18     6     7 ar  
    19     6    27 1   
    20     6    29 ar  
    21     7    11 ar  
    22     7    12 2   
    23     8    13 1   
    24     8    28 1   
    25     8    43 1   
    26     8    44 1   
    27     9    29 ar  
    28     9    32 ar  
    29     9    45 1   
    30    10    46 1   
    31    11    31 2   
    32    11    32 ar  
    33    12    30 1   
    34    12    47 1   
    35    13    15 ar  
    36    13    16 ar  
    37    14    17 ar  
    38    14    18 ar  
    39    14    30 1   
    40    15    19 ar  
    41    15    48 1   
    42    16    20 ar  
    43    16    49 1   
    44    17    21 ar  
    45    17    50 1   
    46    18    22 ar  
    47    18    51 1   
    48    19    24 ar  
    49    19    52 1   
    50    20    24 ar  
    51    20    53 1   
    52    21    23 ar  
    53    21    54 1   
    54    22    23 ar  
    55    22    55 1   
    56    23    25 1   
    57    24    34 1   
    58    25    56 1   
    59    25    57 1   
    60    25    58 1   
    61    26    34 1   
    62    26    59 1   
    63    26    60 1   
    64    26    61 1   
    65    28    62 1   
    66    30    31 1   
@<TRIPOS>SUBSTRUCTURE
     1 TIW         1 TEMP              0 ****  ****    0 ROOT
