@<TRIPOS>MOLECULE
TIX
   53    57     1     0     0
SMALL
No Charge or Current Charge


@<TRIPOS>ATOM
      1 C08         93.7000    24.9270   -27.8520 c5         1 TIX      -0.117000
      2 C09         94.2420    26.0490   -28.9250 c5         1 TIX      -0.090700
      3 C10         95.4170    26.9890   -28.3800 c6         1 TIX      -0.033000
      4 C11         94.5400    24.9620   -30.0320 c5         1 TIX       0.430000
      5 C12         93.5520    25.4420   -26.3730 c6         1 TIX       0.220300
      6 C13         92.2960    24.2900   -28.2070 c6         1 TIX      -0.008500
      7 C14         95.0370    27.4900   -26.9040 c6         1 TIX      -0.057700
      8 C15         94.7690    23.7450   -27.9940 c5         1 TIX       0.170600
      9 C16         94.7790    26.2760   -25.9400 c6         1 TIX      -0.075400
     10 C17         93.2500    24.2870   -30.6280 c6         1 TIX       0.176500
     11 C18         95.5170    28.2590   -29.2970 c6         1 TIX       0.056300
     12 C19         92.2730    23.6930   -29.6100 c2         1 TIX      -0.155400
     13 C20         91.1600    25.3130   -28.0580 c6         1 TIX      -0.186400
     14 C21         96.8440    26.3080   -28.3470 c3         1 TIX      -0.094100
     15 C22         96.0550    28.5410   -26.2760 c6         1 TIX      -0.048700
     16 C23         91.1630    26.0350   -26.7170 c          1 TIX       0.671100
     17 C24         96.3880    29.4150   -28.7080 c          1 TIX       0.549100
     18 C25         96.2040    29.7580   -27.2250 c6         1 TIX      -0.177400
     19 C26         91.4490    22.6800   -29.9300 c2         1 TIX      -0.283000
     20 C27         95.6530    29.0490   -24.8590 c3         1 TIX      -0.091100
     21 O01         95.3180    23.9570   -29.3270 os         1 TIX      -0.463000
     22 O02         92.3830    26.2630   -26.1430 os         1 TIX      -0.473100
     23 O03         95.2930    25.4520   -31.1240 oh         1 TIX      -0.660000
     24 O04         92.5950    25.2680   -31.4220 oh         1 TIX      -0.716000
     25 O05         95.9550    27.9140   -30.6300 oh         1 TIX      -0.661000
     26 O06         90.1270    26.4140   -26.1900 o          1 TIX      -0.508000
     27 O07         97.1250    30.0810   -29.4260 o          1 TIX      -0.520100
     28 H1          93.4310    26.7190   -29.2260 hc         1 TIX       0.086700
     29 H2          93.4710    24.5650   -25.7140 h1         1 TIX       0.065700
     30 H3          92.0920    23.4790   -27.4920 hc         1 TIX       0.058700
     31 H4          94.0800    28.0250   -26.9900 hc         1 TIX       0.062700
     32 H5          94.3190    22.7450   -27.9300 h1         1 TIX       0.050200
     33 H6          95.5790    23.8000   -27.2570 h1         1 TIX       0.050200
     34 H7          95.6670    25.6410   -25.8450 hc         1 TIX       0.065700
     35 H8          94.5700    26.6240   -24.9220 hc         1 TIX       0.065700
     36 H9          93.5950    23.4670   -31.2760 h1         1 TIX       0.071700
     37 H10         94.5130    28.7080   -29.3500 h1         1 TIX       0.081700
     38 H11         91.3000    26.0930   -28.8160 hc         1 TIX       0.087700
     39 H12         90.1680    24.8800   -28.2360 hc         1 TIX       0.087700
     40 H13         96.9160    25.4790   -27.6400 hc         1 TIX       0.049033
     41 H14         97.1450    25.9140   -29.3230 hc         1 TIX       0.049033
     42 H15         97.6300    27.0170   -28.0670 hc         1 TIX       0.049033
     43 H16         97.0390    28.0680   -26.1520 hc         1 TIX       0.056700
     44 H17         96.9850    30.4600   -26.9050 hc         1 TIX       0.076700
     45 H18         95.2460    30.2950   -27.1830 hc         1 TIX       0.076700
     46 H19         90.7560    22.2500   -29.2050 ha         1 TIX       0.171000
     47 H20         91.4330    22.2490   -30.9310 ha         1 TIX       0.171000
     48 H21         95.7830    28.2760   -24.0940 hc         1 TIX       0.042367
     49 H22         96.2790    29.8960   -24.5520 hc         1 TIX       0.042367
     50 H23         94.6090    29.3840   -24.8340 hc         1 TIX       0.042367
     51 H24         95.6270    26.3460   -30.8320 ho         1 TIX       0.502000
     52 H25         93.3780    25.8120   -31.6790 ho         1 TIX       0.505000
     53 H26         96.4050    28.7170   -30.9940 ho         1 TIX       0.482000
@<TRIPOS>BOND
     1     1     2 1   
     2     1     5 1   
     3     1     6 1   
     4     1     8 1   
     5     2     3 1   
     6     2     4 1   
     7     2    28 1   
     8     3     7 1   
     9     3    11 1   
    10     3    14 1   
    11     4    10 1   
    12     4    21 1   
    13     4    23 1   
    14     5     9 1   
    15     5    22 1   
    16     5    29 1   
    17     6    12 1   
    18     6    13 1   
    19     6    30 1   
    20     7     9 1   
    21     7    15 1   
    22     7    31 1   
    23     8    21 1   
    24     8    32 1   
    25     8    33 1   
    26     9    34 1   
    27     9    35 1   
    28    10    12 1   
    29    10    24 1   
    30    10    36 1   
    31    11    17 1   
    32    11    25 1   
    33    11    37 1   
    34    12    19 2   
    35    13    16 1   
    36    13    38 1   
    37    13    39 1   
    38    14    40 1   
    39    14    41 1   
    40    14    42 1   
    41    15    18 1   
    42    15    20 1   
    43    15    43 1   
    44    16    22 1   
    45    16    26 2   
    46    17    18 1   
    47    17    27 2   
    48    18    44 1   
    49    18    45 1   
    50    19    46 1   
    51    19    47 1   
    52    20    48 1   
    53    20    49 1   
    54    20    50 1   
    55    23    51 1   
    56    24    52 1   
    57    25    53 1   
@<TRIPOS>SUBSTRUCTURE
     1 TIX         1 TEMP              0 ****  ****    0 ROOT
