@<TRIPOS>MOLECULE
TIX
   53    57     1     0     0
SMALL
abcg2


@<TRIPOS>ATOM
      1 C08         93.7390    24.9350   -27.7990 c5         1 TIX      -0.117000
      2 C09         94.2630    25.9720   -28.8310 c5         1 TIX      -0.090700
      3 C10         95.4050    26.9270   -28.3320 c6         1 TIX      -0.033000
      4 C11         94.5690    24.9750   -29.9800 c5         1 TIX       0.430000
      5 C12         93.6600    25.4020   -26.3590 c6         1 TIX       0.220300
      6 C13         92.3430    24.4120   -28.2140 c6         1 TIX      -0.008500
      7 C14         95.0340    27.4330   -26.9000 c6         1 TIX      -0.057700
      8 C15         94.7480    23.7840   -27.9640 c5         1 TIX       0.170600
      9 C16         94.8300    26.2640   -25.9380 c6         1 TIX      -0.075400
     10 C17         93.2490    24.4770   -30.6070 c6         1 TIX       0.176500
     11 C18         95.3840    28.1970   -29.2350 c6         1 TIX       0.056300
     12 C19         92.3800    23.7880   -29.5860 c2         1 TIX      -0.155400
     13 C20         91.2990    25.5210   -28.0980 c6         1 TIX      -0.186400
     14 C21         96.8120    26.3060   -28.3610 c3         1 TIX      -0.094100
     15 C22         96.0290    28.4700   -26.3420 c6         1 TIX      -0.048700
     16 C23         91.3630    26.2820   -26.8020 c          1 TIX       0.671100
     17 C24         96.3660    29.2310   -28.7200 c          1 TIX       0.549100
     18 C25         96.1710    29.6640   -27.3080 c6         1 TIX      -0.177400
     19 C26         91.7180    22.6750   -29.8840 c2         1 TIX      -0.283000
     20 C27         95.6270    29.0090   -24.9680 c3         1 TIX      -0.091100
     21 O01         95.1830    23.8470   -29.3260 os         1 TIX      -0.463000
     22 O02         92.4700    26.2100   -26.0580 os         1 TIX      -0.473100
     23 O03         95.4110    25.3660   -31.0070 oh         1 TIX      -0.660000
     24 O04         92.5950    25.6210   -31.1760 oh         1 TIX      -0.716000
     25 O05         95.6660    27.9420   -30.6020 oh         1 TIX      -0.661000
     26 O06         90.4540    26.9830   -26.4100 o          1 TIX      -0.508000
     27 O07         97.2460    29.6420   -29.4540 o          1 TIX      -0.520100
     28 H1          93.4480    26.6200   -29.1440 hc         1 TIX       0.086700
     29 H2          93.5750    24.5290   -25.7090 h1         1 TIX       0.065700
     30 H3          92.0750    23.6320   -27.4970 hc         1 TIX       0.058700
     31 H4          94.0690    27.9460   -26.9900 hc         1 TIX       0.062700
     32 H5          94.2820    22.8160   -27.7700 h1         1 TIX       0.050200
     33 H6          95.6130    23.8880   -27.3090 h1         1 TIX       0.050200
     34 H7          95.7280    25.6490   -25.8660 hc         1 TIX       0.065700
     35 H8          94.6230    26.6260   -24.9340 hc         1 TIX       0.065700
     36 H9          93.5230    23.7710   -31.3960 h1         1 TIX       0.071700
     37 H10         94.3820    28.6350   -29.1680 h1         1 TIX       0.081700
     38 H11         91.4020    26.2540   -28.9010 hc         1 TIX       0.087700
     39 H12         90.2930    25.1120   -28.1860 hc         1 TIX       0.087700
     40 H13         96.9000    25.4710   -27.6700 hc         1 TIX       0.049033
     41 H14         97.0630    25.9390   -29.3500 hc         1 TIX       0.049033
     42 H15         97.5680    27.0380   -28.0780 hc         1 TIX       0.049033
     43 H16         97.0100    27.9970   -26.2430 hc         1 TIX       0.056700
     44 H17         96.9860    30.3230   -27.0110 hc         1 TIX       0.076700
     45 H18         95.2370    30.2380   -27.2790 hc         1 TIX       0.076700
     46 H19         91.0970    22.1720   -29.1510 ha         1 TIX       0.171000
     47 H20         91.7730    22.2370   -30.8730 ha         1 TIX       0.171000
     48 H21         95.6980    28.2490   -24.1910 hc         1 TIX       0.042367
     49 H22         96.2840    29.8330   -24.6830 hc         1 TIX       0.042367
     50 H23         94.6010    29.3870   -24.9880 hc         1 TIX       0.042367
     51 H24         95.5890    26.3310   -30.9430 ho         1 TIX       0.502000
     52 H25         91.7710    25.3190   -31.5770 ho         1 TIX       0.505000
     53 H26         96.4960    28.4160   -30.8020 ho         1 TIX       0.482000
@<TRIPOS>BOND
     1     1     2 1   
     2     1     5 1   
     3     1     6 1   
     4     1     8 1   
     5     2     3 1   
     6     2     4 1   
     7     2    28 1   
     8     3     7 1   
     9     3    11 1   
    10     3    14 1   
    11     4    10 1   
    12     4    21 1   
    13     4    23 1   
    14     5     9 1   
    15     5    22 1   
    16     5    29 1   
    17     6    12 1   
    18     6    13 1   
    19     6    30 1   
    20     7     9 1   
    21     7    15 1   
    22     7    31 1   
    23     8    21 1   
    24     8    32 1   
    25     8    33 1   
    26     9    34 1   
    27     9    35 1   
    28    10    12 1   
    29    10    24 1   
    30    10    36 1   
    31    11    17 1   
    32    11    25 1   
    33    11    37 1   
    34    12    19 2   
    35    13    16 1   
    36    13    38 1   
    37    13    39 1   
    38    14    40 1   
    39    14    41 1   
    40    14    42 1   
    41    15    18 1   
    42    15    20 1   
    43    15    43 1   
    44    16    22 1   
    45    16    26 2   
    46    17    18 1   
    47    17    27 2   
    48    18    44 1   
    49    18    45 1   
    50    19    46 1   
    51    19    47 1   
    52    20    48 1   
    53    20    49 1   
    54    20    50 1   
    55    23    51 1   
    56    24    52 1   
    57    25    53 1   
@<TRIPOS>SUBSTRUCTURE
     1 TIX         1 TEMP              0 ****  ****    0 ROOT
