@<TRIPOS>MOLECULE
TIY
   24    25     1     0     0
SMALL
abcg2


@<TRIPOS>ATOM
      1 C13        -94.6830     9.7600   -48.6920 ca         1 TIY       0.205100
      2 C15        -94.2630     9.7620   -50.0240 ca         1 TIY      -0.025900
      3 O01        -92.9140     9.0440   -51.7400 oh         1 TIY      -0.590100
      4 C02        -93.2180     8.9500   -50.4310 ca         1 TIY       0.169100
      5 C03        -92.5290     8.0910   -49.5150 ca         1 TIY      -0.235600
      6 C04        -92.9780     8.1040   -48.1440 ca         1 TIY       0.067200
      7 C05        -92.4530     7.3390   -47.0560 cc         1 TIY      -0.172200
      8 C06        -91.4360     6.4400   -47.0030 cd         1 TIY      -0.127000
      9 C07        -90.5890     6.0000   -48.0390 cd         1 TIY      -0.187000
     10 C08        -90.5870     6.3660   -49.3500 cc         1 TIY       0.050900
     11 C09        -91.4500     7.3070   -50.0690 c          1 TIY       0.566900
     12 O10        -91.1570     7.3920   -51.3050 o          1 TIY      -0.647100
     13 O11        -89.6600     5.7940   -50.1500 oh         1 TIY      -0.535100
     14 C12        -94.0470     8.9440   -47.7830 ca         1 TIY      -0.192000
     15 O14        -95.7030    10.5500   -48.2900 oh         1 TIY      -0.524100
     16 O16        -94.9100    10.5800   -50.8950 oh         1 TIY      -0.555100
     17 HO01       -92.1460     8.4090   -51.8780 ho         1 TIY       0.538000
     18 H06        -91.2420     5.9980   -46.0330 ha         1 TIY       0.185000
     19 H07        -89.8320     5.2720   -47.7690 ha         1 TIY       0.200000
     20 H4         -89.8190     6.1740   -51.0400 ho         1 TIY       0.498000
     21 H12        -94.3860     8.9540   -46.7560 ha         1 TIY       0.138000
     22 HO14       -96.0470    11.0500   -49.0460 ho         1 TIY       0.493000
     23 HO16       -94.5250    10.4630   -51.7780 ho         1 TIY       0.497000
     24 H05        -92.9630     7.5190   -46.1170 ha         1 TIY       0.182000
@<TRIPOS>BOND
     1     1     2 ar  
     2     1    14 ar  
     3     1    15 1   
     4     2     4 ar  
     5     2    16 1   
     6     3     4 1   
     7     3    17 1   
     8     4     5 ar  
     9     5     6 ar  
    10     5    11 1   
    11     6     7 1   
    12     6    14 ar  
    13     7     8 2   
    14     7    24 1   
    15     8     9 1   
    16     8    18 1   
    17     9    10 2   
    18     9    19 1   
    19    10    11 1   
    20    10    13 1   
    21    11    12 2   
    22    13    20 1   
    23    14    21 1   
    24    15    22 1   
    25    16    23 1   
@<TRIPOS>SUBSTRUCTURE
     1 TIY         1 TEMP              0 ****  ****    0 ROOT
