@<TRIPOS>MOLECULE
TIY
   24    25     1     0     0
SMALL
No Charge or Current Charge


@<TRIPOS>ATOM
      1 C13        -94.5960     9.8480   -48.6490 ca         1 TIY       0.205100
      2 C15        -94.2240     9.8530   -49.9940 ca         1 TIY      -0.025900
      3 O01        -92.9480     8.9600   -51.7760 oh         1 TIY      -0.590100
      4 C02        -93.2740     8.9220   -50.4500 ca         1 TIY       0.169100
      5 C03        -92.6660     7.9810   -49.5680 ca         1 TIY      -0.235600
      6 C04        -93.0750     7.9740   -48.2100 ca         1 TIY       0.067200
      7 C05        -92.6870     7.0250   -47.1670 cc         1 TIY      -0.172200
      8 C06        -91.4520     6.4350   -46.9980 cd         1 TIY      -0.127000
      9 C07        -90.3930     6.3140   -47.9570 cd         1 TIY      -0.187000
     10 C08        -90.4770     6.5500   -49.3100 cc         1 TIY       0.050900
     11 C09        -91.6160     7.0600   -50.1370 c          1 TIY       0.566900
     12 O10        -91.5970     6.8380   -51.3510 o          1 TIY      -0.647100
     13 O11        -89.4470     6.1390   -50.0960 oh         1 TIY      -0.535100
     14 C12        -94.0360     8.9150   -47.7770 ca         1 TIY      -0.192000
     15 O14        -95.5180    10.7450   -48.2050 oh         1 TIY      -0.524100
     16 O16        -94.7790    10.7550   -50.8720 oh         1 TIY      -0.555100
     17 HO01       -92.3830     8.1500   -51.9280 ho         1 TIY       0.538000
     18 H06        -91.2630     5.9870   -46.0240 ha         1 TIY       0.185000
     19 H07        -89.4700     5.8620   -47.6030 ha         1 TIY       0.200000
     20 H4         -89.7760     6.2480   -51.0230 ho         1 TIY       0.498000
     21 H12        -94.3630     8.9240   -46.7410 ha         1 TIY       0.138000
     22 HO14       -95.7650    11.2770   -48.9940 ho         1 TIY       0.493000
     23 HO16       -94.3720    10.5760   -51.7530 ho         1 TIY       0.497000
     24 H05        -93.3590     6.9220   -46.3180 ha         1 TIY       0.182000
@<TRIPOS>BOND
     1     1     2 ar  
     2     1    14 ar  
     3     1    15 1   
     4     2     4 ar  
     5     2    16 1   
     6     3     4 1   
     7     3    17 1   
     8     4     5 ar  
     9     5     6 ar  
    10     5    11 1   
    11     6     7 1   
    12     6    14 ar  
    13     7     8 2   
    14     7    24 1   
    15     8     9 1   
    16     8    18 1   
    17     9    10 2   
    18     9    19 1   
    19    10    11 1   
    20    10    13 1   
    21    11    12 2   
    22    13    20 1   
    23    14    21 1   
    24    15    22 1   
    25    16    23 1   
@<TRIPOS>SUBSTRUCTURE
     1 TIY         1 TEMP              0 ****  ****    0 ROOT
