@<TRIPOS>MOLECULE
TIZ
   29    30     1     0     0
SMALL
bcc


@<TRIPOS>ATOM
      1 O2          -1.8100     1.4430    -0.1800 oh         1 TIZ      -0.584800
      2 C2          -0.8960     0.6970     0.5700 c5         1 TIZ       0.069100
      3 C3          -1.5160    -0.4180     1.4220 c5         1 TIZ       0.091100
      4 O3          -2.7340    -0.0040     1.9820 oh         1 TIZ      -0.577800
      5 C4          -0.4830    -0.5390     2.5310 c5         1 TIZ       0.139100
      6 C5           0.6790    -1.4380     2.1450 c3         1 TIZ       0.124400
      7 O5           1.6220    -1.4290     3.1880 oh         1 TIZ      -0.572800
      8 O4          -0.0670     0.7990     2.7860 os         1 TIZ      -0.351600
      9 C1          -0.2500     1.5930     1.6460 c5         1 TIZ       0.116800
     10 C1M          1.0650     2.1310     1.1710 cc         1 TIZ       0.402700
     11 N1H          2.2030     1.5770     1.4070 nd         1 TIZ      -0.621000
     12 S1J          1.1600     3.5270     0.1530 ss         1 TIZ      -0.143300
     13 C1F          2.8530     3.3230     0.0520 cc         1 TIZ      -0.138400
     14 C1L          3.2220     2.2370     0.7830 cd         1 TIZ       0.272800
     15 C1K          4.6170     1.7470     0.9210 c          1 TIZ       0.604600
     16 O1B          5.5500     2.3200     0.3730 o          1 TIZ      -0.610100
     17 N1A          4.7370     0.6500     1.6770 nt         1 TIZ      -0.659000
     18 HO2         -1.9330     1.0180    -1.0340 ho         1 TIZ       0.417000
     19 H2          -0.1230     0.2600    -0.0730 h1         1 TIZ       0.055700
     20 H3          -1.6260    -1.3500     0.8510 h1         1 TIZ       0.052700
     21 HO3         -3.2390     0.4430     1.2930 ho         1 TIZ       0.421000
     22 H4          -0.9340    -0.9240     3.4520 h1         1 TIZ       0.106700
     23 H5'1         1.1250    -1.1070     1.2000 h1         1 TIZ       0.020200
     24 H5'2         0.2730    -2.4430     1.9710 h1         1 TIZ       0.020200
     25 HO5          2.3530    -1.9980     2.9330 ho         1 TIZ       0.400000
     26 H1          -0.9260     2.4260     1.8760 h1         1 TIZ       0.095700
     27 H1F          3.4740     3.9920    -0.5220 h4         1 TIZ       0.199000
     28 H1A1         3.9280     0.2220     2.0980 hn         1 TIZ       0.327000
     29 H1A2         5.6380     0.2250     1.8230 hn         1 TIZ       0.327000
@<TRIPOS>BOND
     1     1     2 1   
     2     1    18 1   
     3     2     3 1   
     4     2     9 1   
     5     2    19 1   
     6     3     4 1   
     7     3     5 1   
     8     3    20 1   
     9     4    21 1   
    10     5     6 1   
    11     5     8 1   
    12     5    22 1   
    13     6     7 1   
    14     6    23 1   
    15     6    24 1   
    16     7    25 1   
    17     8     9 1   
    18     9    10 1   
    19     9    26 1   
    20    10    11 2   
    21    10    12 1   
    22    11    14 1   
    23    12    13 1   
    24    13    14 2   
    25    13    27 1   
    26    14    15 1   
    27    15    16 2   
    28    15    17 1   
    29    17    28 1   
    30    17    29 1   
@<TRIPOS>SUBSTRUCTURE
     1 TIZ         1 TEMP              0 ****  ****    0 ROOT
