@<TRIPOS>MOLECULE
TIZ
   29    30     1     0     0
SMALL
No Charge or Current Charge


@<TRIPOS>ATOM
      1 O2          -1.5020     1.0600    -0.5650 oh         1 TIZ      -0.707000
      2 C2          -0.7300     0.4920     0.5090 c5         1 TIZ       0.092300
      3 C3          -1.5970    -0.4690     1.3730 c5         1 TIZ       0.114300
      4 O3          -2.9040     0.0880     1.5710 oh         1 TIZ      -0.700000
      5 C4          -0.7420    -0.5120     2.6800 c5         1 TIZ       0.162300
      6 C5           0.4920    -1.4620     2.5980 c3         1 TIZ       0.147600
      7 O5           1.1050    -1.6360     3.8890 oh         1 TIZ      -0.695000
      8 O4          -0.3080     0.8630     2.8660 os         1 TIZ      -0.398000
      9 C1          -0.2930     1.5490     1.5790 c5         1 TIZ       0.140000
     10 C1M          1.0620     2.1640     1.2610 cc         1 TIZ       0.402700
     11 N1H          2.1910     1.4730     1.1040 nd         1 TIZ      -0.621000
     12 S1J          1.2070     3.8940     1.0760 ss         1 TIZ       0.001600
     13 C1F          2.9020     3.6640     0.7690 cc         1 TIZ      -0.200000
     14 C1L          3.2590     2.3320     0.8210 cd         1 TIZ       0.207500
     15 C1K          4.6930     1.9230     0.5810 c          1 TIZ       0.537600
     16 O1B          5.6130     2.6910     0.3340 o          1 TIZ      -0.610100
     17 N1A          4.9310     0.5920     0.6550 nt         1 TIZ      -0.592000
     18 HO2         -1.3140     0.5330    -1.3810 ho         1 TIZ       0.516000
     19 H2           0.1460    -0.0400     0.1100 h1         1 TIZ       0.055700
     20 H3          -1.6740    -1.4640     0.9110 h1         1 TIZ       0.052700
     21 HO3         -3.0210     0.6860     0.7910 ho         1 TIZ       0.520000
     22 H4          -1.3550    -0.8210     3.5370 h1         1 TIZ       0.106700
     23 H5'1         1.2210    -1.0640     1.8810 h1         1 TIZ       0.020200
     24 H5'2         0.1560    -2.4360     2.2170 h1         1 TIZ       0.020200
     25 HO5          1.9050    -2.1970     3.7560 ho         1 TIZ       0.499000
     26 H1          -1.0400     2.3520     1.6310 h1         1 TIZ       0.095700
     27 H1F          3.5330     4.5200     0.5710 h4         1 TIZ       0.181000
     28 H1A1         4.1640    -0.0340     0.8600 hn         1 TIZ       0.327000
     29 H1A2         5.8640     0.2390     0.5070 hn         1 TIZ       0.327000
@<TRIPOS>BOND
     1     1     2 1   
     2     1    18 1   
     3     2     3 1   
     4     2     9 1   
     5     2    19 1   
     6     3     4 1   
     7     3     5 1   
     8     3    20 1   
     9     4    21 1   
    10     5     6 1   
    11     5     8 1   
    12     5    22 1   
    13     6     7 1   
    14     6    23 1   
    15     6    24 1   
    16     7    25 1   
    17     8     9 1   
    18     9    10 1   
    19     9    26 1   
    20    10    11 2   
    21    10    12 1   
    22    11    14 1   
    23    12    13 1   
    24    13    14 2   
    25    13    27 1   
    26    14    15 1   
    27    15    16 2   
    28    15    17 1   
    29    17    28 1   
    30    17    29 1   
@<TRIPOS>SUBSTRUCTURE
     1 TIZ         1 TEMP              0 ****  ****    0 ROOT
