@<TRIPOS>MOLECULE
TJ0
   30    31     1     0     0
SMALL
abcg2


@<TRIPOS>ATOM
      1 N1         -21.0140    -0.3650   -48.1480 ns         1 TJ0      -0.506900
      2 C4         -20.0920     0.4990   -54.9440 ca         1 TJ0      -0.083000
      3 C5         -20.3180    -0.3990   -53.9090 ca         1 TJ0      -0.093000
      4 C6         -19.4160    -0.5100   -52.8530 ca         1 TJ0      -0.088600
      5 C7         -19.7080    -1.5600   -51.8110 c          1 TJ0       0.607700
      6 C8         -20.6640    -2.2150   -49.7000 c6         1 TJ0       0.089000
      7 C10        -20.7410     0.6080   -49.0310 c          1 TJ0       0.553000
      8 N          -20.3860    -1.1850   -50.7090 n          1 TJ0      -0.406800
      9 O          -19.3640    -2.7260   -52.0050 o          1 TJ0      -0.575100
     10 C1         -18.2680     0.2920   -52.8520 ca         1 TJ0      -0.158300
     11 C11        -20.8880     0.1710   -50.4820 c6         1 TJ0       0.021000
     12 C2         -18.0450     1.1910   -53.8920 ca         1 TJ0      -0.064000
     13 C3         -18.9540     1.2960   -54.9360 ca         1 TJ0      -0.103000
     14 C9         -21.5390    -1.6480   -48.5960 c6         1 TJ0       0.094000
     15 F          -17.7100     1.0110   -50.6610 f          1 TJ0      -0.106667
     16 F1         -17.0880    -0.9850   -51.2210 f          1 TJ0      -0.106667
     17 F2         -16.0770     0.7370   -52.0560 f          1 TJ0      -0.106667
     18 O1         -20.4320     1.7570   -48.7270 o          1 TJ0      -0.545000
     19 H1         -21.0030    -0.1390   -47.1640 hn         1 TJ0       0.327500
     20 H2         -20.8050     0.5730   -55.7550 ha         1 TJ0       0.124000
     21 H3         -21.2030    -1.0210   -53.9130 ha         1 TJ0       0.127000
     22 H4         -21.1590    -3.0640   -50.1710 h1         1 TJ0       0.068700
     23 H5         -19.7150    -2.5630   -49.2870 h1         1 TJ0       0.068700
     24 H6         -20.3550     0.8810   -51.1030 h1         1 TJ0       0.076200
     25 H7         -21.9510     0.2300   -50.7420 h1         1 TJ0       0.076200
     26 H8         -17.1590     1.8100   -53.8850 ha         1 TJ0       0.136000
     27 H9         -18.7710     1.9970   -55.7390 ha         1 TJ0       0.126000
     28 H10        -22.5710    -1.5370   -48.9420 h1         1 TJ0       0.054200
     29 H11        -21.5440    -2.3350   -47.7530 h1         1 TJ0       0.054200
     30 C          -17.2880     0.2570   -51.7100 c3         1 TJ0       0.340300
@<TRIPOS>BOND
     1     1     7 1   
     2     1    14 1   
     3     1    19 1   
     4     2     3 ar  
     5     2    13 ar  
     6     2    20 1   
     7     3     4 ar  
     8     3    21 1   
     9     4     5 1   
    10     4    10 ar  
    11     5     8 1   
    12     5     9 2   
    13     6     8 1   
    14     6    14 1   
    15     6    22 1   
    16     6    23 1   
    17     7    11 1   
    18     7    18 2   
    19     8    11 1   
    20    10    12 ar  
    21    10    30 1   
    22    11    24 1   
    23    11    25 1   
    24    12    13 ar  
    25    12    26 1   
    26    13    27 1   
    27    14    28 1   
    28    14    29 1   
    29    15    30 1   
    30    16    30 1   
    31    17    30 1   
@<TRIPOS>SUBSTRUCTURE
     1 TJ0         1 TEMP              0 ****  ****    0 ROOT
