@<TRIPOS>MOLECULE
TJ0
   30    31     1     0     0
SMALL
No Charge or Current Charge


@<TRIPOS>ATOM
      1 N1         -22.0600    -0.3600   -48.3100 ns         1 TJ0      -0.506900
      2 C4         -20.3400     0.7280   -54.5470 ca         1 TJ0      -0.083000
      3 C5         -20.3890    -0.1090   -53.4230 ca         1 TJ0      -0.093000
      4 C6         -19.2170    -0.4360   -52.7050 ca         1 TJ0      -0.088600
      5 C7         -19.3410    -1.3790   -51.5230 c          1 TJ0       0.607700
      6 C8         -20.5600    -2.0220   -49.4220 c6         1 TJ0       0.089000
      7 C10        -21.5000     0.6890   -48.9940 c          1 TJ0       0.553000
      8 N          -20.3180    -1.0750   -50.5470 n          1 TJ0      -0.406800
      9 O          -18.7020    -2.4220   -51.4680 o          1 TJ0      -0.575100
     10 C1         -17.9630     0.0950   -53.1350 ca         1 TJ0      -0.158300
     11 C11        -20.6950     0.3580   -50.2760 c6         1 TJ0       0.021000
     12 C2         -17.9340     0.9300   -54.2790 ca         1 TJ0      -0.064000
     13 C3         -19.1110     1.2450   -54.9750 ca         1 TJ0      -0.103000
     14 C9         -21.8830    -1.7710   -48.6640 c6         1 TJ0       0.094000
     15 F          -16.7990    -0.0890   -51.0360 f          1 TJ0      -0.106667
     16 F1         -16.1860    -1.4360   -52.6360 f          1 TJ0      -0.106667
     17 F2         -15.6570     0.6640   -52.7080 f          1 TJ0      -0.106667
     18 O1         -21.6440     1.8330   -48.5950 o          1 TJ0      -0.545000
     19 H1         -22.5900    -0.1240   -47.4790 hn         1 TJ0       0.327500
     20 H2         -21.2520     0.9670   -55.0900 ha         1 TJ0       0.124000
     21 H3         -21.3480    -0.5250   -53.1170 ha         1 TJ0       0.127000
     22 H4         -20.5650    -3.0550   -49.8000 h1         1 TJ0       0.068700
     23 H5         -19.7230    -1.9410   -48.7140 h1         1 TJ0       0.068700
     24 H6         -19.7840     0.9700   -50.2370 h1         1 TJ0       0.076200
     25 H7         -21.3120     0.7310   -51.1030 h1         1 TJ0       0.076200
     26 H8         -16.9960     1.3480   -54.6390 ha         1 TJ0       0.136000
     27 H9         -19.0690     1.8900   -55.8500 ha         1 TJ0       0.126000
     28 H10        -22.7280    -2.0730   -49.2980 h1         1 TJ0       0.054200
     29 H11        -21.9120    -2.3810   -47.7490 h1         1 TJ0       0.054200
     30 C          -16.6510    -0.1930   -52.3770 c3         1 TJ0       0.340300
@<TRIPOS>BOND
     1     1     7 1   
     2     1    14 1   
     3     1    19 1   
     4     2     3 ar  
     5     2    13 ar  
     6     2    20 1   
     7     3     4 ar  
     8     3    21 1   
     9     4     5 1   
    10     4    10 ar  
    11     5     8 1   
    12     5     9 2   
    13     6     8 1   
    14     6    14 1   
    15     6    22 1   
    16     6    23 1   
    17     7    11 1   
    18     7    18 2   
    19     8    11 1   
    20    10    12 ar  
    21    10    30 1   
    22    11    24 1   
    23    11    25 1   
    24    12    13 ar  
    25    12    26 1   
    26    13    27 1   
    27    14    28 1   
    28    14    29 1   
    29    15    30 1   
    30    16    30 1   
    31    17    30 1   
@<TRIPOS>SUBSTRUCTURE
     1 TJ0         1 TEMP              0 ****  ****    0 ROOT
