@<TRIPOS>MOLECULE
TJ1
   17    17     1     0     0
SMALL
No Charge or Current Charge


@<TRIPOS>ATOM
      1 C4          -0.7560    11.9720   -35.2260 c          1 TJ1       0.653100
      2 N1          -0.5510    13.9360   -34.0530 n2         1 TJ1      -0.312700
      3 O1          -0.5820    10.8670   -35.7100 o          1 TJ1      -0.504000
      4 N           -1.8030    12.7990   -35.4210 ns         1 TJ1      -0.564900
      5 O            0.0690    12.6660   -34.3540 os         1 TJ1      -0.226100
      6 C3          -1.6510    13.9360   -34.7210 cc         1 TJ1       0.383900
      7 C1          -2.6990    15.0240   -34.7780 c3         1 TJ1      -0.084000
      8 C2          -2.1380    16.3330   -35.3820 c3         1 TJ1      -0.088600
      9 C           -3.3470    15.2720   -33.3950 c3         1 TJ1      -0.088600
     10 H1          -2.5790    12.5590   -36.0220 hn         1 TJ1       0.478000
     11 H2          -3.5030    14.6910   -35.4450 hc         1 TJ1       0.065700
     12 H3          -2.9280    17.0880   -35.4760 hc         1 TJ1       0.047867
     13 H4          -1.3420    16.7470   -34.7500 hc         1 TJ1       0.047867
     14 H5          -1.7230    16.1500   -36.3800 hc         1 TJ1       0.047867
     15 H6          -4.1490    16.0160   -33.4680 hc         1 TJ1       0.047867
     16 H7          -3.7790    14.3440   -33.0000 hc         1 TJ1       0.047867
     17 H8          -2.6050    15.6380   -32.6740 hc         1 TJ1       0.047867
@<TRIPOS>BOND
     1     1     3 2   
     2     1     4 1   
     3     1     5 1   
     4     2     5 1   
     5     2     6 2   
     6     4     6 1   
     7     4    10 1   
     8     6     7 1   
     9     7     8 1   
    10     7     9 1   
    11     7    11 1   
    12     8    12 1   
    13     8    13 1   
    14     8    14 1   
    15     9    15 1   
    16     9    16 1   
    17     9    17 1   
@<TRIPOS>SUBSTRUCTURE
     1 TJ1         1 TEMP              0 ****  ****    0 ROOT
