@<TRIPOS>MOLECULE
TJ1
   17    17     1     0     0
SMALL
abcg2


@<TRIPOS>ATOM
      1 C4          -0.8030    11.9800   -35.0150 c          1 TJ1       0.653100
      2 N1          -0.3760    14.1870   -35.0860 n2         1 TJ1      -0.312700
      3 O1          -0.6110    10.7930   -35.0020 o          1 TJ1      -0.504000
      4 N           -1.9610    12.6940   -34.9650 ns         1 TJ1      -0.564900
      5 O            0.1710    12.9070   -35.0870 os         1 TJ1      -0.226100
      6 C3          -1.6470    14.0190   -35.0120 cc         1 TJ1       0.383900
      7 C1          -2.6580    15.1120   -34.9610 c3         1 TJ1      -0.084000
      8 C2          -2.0220    16.4780   -35.1810 c3         1 TJ1      -0.088600
      9 C           -3.4260    15.0470   -33.6370 c3         1 TJ1      -0.088600
     10 H1          -2.8830    12.2890   -34.9210 hn         1 TJ1       0.478000
     11 H2          -3.3650    14.9210   -35.7750 hc         1 TJ1       0.065700
     12 H3          -2.7960    17.2430   -35.1710 hc         1 TJ1       0.047867
     13 H4          -1.3030    16.7160   -34.3960 hc         1 TJ1       0.047867
     14 H5          -1.5080    16.5340   -36.1400 hc         1 TJ1       0.047867
     15 H6          -4.1840    15.8290   -33.6140 hc         1 TJ1       0.047867
     16 H7          -3.9360    14.0930   -33.5010 hc         1 TJ1       0.047867
     17 H8          -2.7560    15.1980   -32.7890 hc         1 TJ1       0.047867
@<TRIPOS>BOND
     1     1     3 2   
     2     1     4 1   
     3     1     5 1   
     4     2     5 1   
     5     2     6 2   
     6     4     6 1   
     7     4    10 1   
     8     6     7 1   
     9     7     8 1   
    10     7     9 1   
    11     7    11 1   
    12     8    12 1   
    13     8    13 1   
    14     8    14 1   
    15     9    15 1   
    16     9    16 1   
    17     9    17 1   
@<TRIPOS>SUBSTRUCTURE
     1 TJ1         1 TEMP              0 ****  ****    0 ROOT
