@<TRIPOS>MOLECULE
TJ2
   54    56     1     0     0
SMALL
No Charge or Current Charge


@<TRIPOS>ATOM
      1 C            2.9070     0.0340    -0.4930 c          1 TJ2       0.605100
      2 N            1.2610     1.2490     1.1510 n          1 TJ2      -0.411800
      3 O            3.0490    -0.3450    -1.6490 o          1 TJ2      -0.559100
      4 CA           1.5140     0.0950     0.2220 c3         1 TJ2       0.148900
      5 OAE          1.2490     2.2840    -1.9520 o          1 TJ2      -0.705500
      6 OAG         -0.4440     2.2060    -3.2550 o          1 TJ2      -0.705500
      7 CAJ          1.8430     2.5190     0.9400 c          1 TJ2       0.637900
      8 CAK         -3.2230    -0.3550     1.9400 ca         1 TJ2      -0.103000
      9 CAL         -3.0580     1.6940     0.6390 ca         1 TJ2      -0.103000
     10 CAM         -1.4240    -3.4550     0.5540 ca         1 TJ2      -0.151000
     11 CAN         -1.8900    -0.1980     2.3570 ca         1 TJ2      -0.077000
     12 CAO         -1.7240     1.8510     1.0540 ca         1 TJ2      -0.077000
     13 CAP         -0.4130    -2.4700     0.5430 ca         1 TJ2      -0.078000
     14 CAQ         -2.5770    -2.3300    -1.2940 ca         1 TJ2      -0.111000
     15 CAR          0.3430     1.0200     2.2960 c3         1 TJ2       0.147300
     16 NAS          3.9780     0.4300     0.3000 ns         1 TJ2      -0.528900
     17 NAT         -1.4100    -0.2550    -2.0750 na         1 TJ2      -0.184700
     18 CAW         -3.8030     0.5880     1.0760 ca         1 TJ2       0.121000
     19 CAX         -2.5020    -3.3810    -0.3580 ca         1 TJ2       0.113000
     20 CAY         -1.1260     0.8970     1.9030 ca         1 TJ2      -0.099300
     21 CAZ         -0.2550     0.4720    -1.7110 cc         1 TJ2      -0.029300
     22 CBA          0.3040    -0.2570    -0.6410 cd         1 TJ2      -0.197400
     23 CBB         -1.5570    -1.3710    -1.2800 ca         1 TJ2      -0.057200
     24 CBC         -0.5200    -1.4300    -0.3950 ca         1 TJ2      -0.081800
     25 CBF          5.3920     0.5150    -0.0830 c3         1 TJ2       0.142400
     26 HA           1.6180    -0.7500     0.9100 h1         1 TJ2       0.033700
     27 HAA          5.0990     1.1640    -2.1690 hc         1 TJ2       0.040922
     28 HAAA         5.1510     2.4950    -0.9970 hc         1 TJ2       0.040922
     29 HAAB         6.6440     1.6610    -1.4700 hc         1 TJ2       0.040922
     30 HAB          7.0170    -0.8390    -0.6560 hc         1 TJ2       0.040922
     31 HABA         5.7610    -1.6060     0.3350 hc         1 TJ2       0.040922
     32 HABB         5.4620    -1.2650    -1.3810 hc         1 TJ2       0.040922
     33 HAC          5.7960     2.0200     1.4600 hc         1 TJ2       0.040922
     34 HACA         6.0460     0.3480     2.0030 hc         1 TJ2       0.040922
     35 HACB         7.2340     1.1230     0.9380 hc         1 TJ2       0.040922
     36 HAJ          2.5250     2.5660     0.0730 h5         1 TJ2       0.045200
     37 HAK         -3.8020    -1.2110     2.2760 ha         1 TJ2       0.125000
     38 HAL         -3.5100     2.4240    -0.0280 ha         1 TJ2       0.125000
     39 HAM         -1.3770    -4.2700     1.2700 ha         1 TJ2       0.107000
     40 HAN         -1.4440    -0.9440     3.0110 ha         1 TJ2       0.127500
     41 HAO         -1.1480     2.7020     0.6970 ha         1 TJ2       0.127500
     42 HAP          0.4100    -2.5200     1.2520 ha         1 TJ2       0.100000
     43 HAQ         -3.4030    -2.2660    -1.9980 ha         1 TJ2       0.122000
     44 HAR          0.6570     0.1000     2.8050 h1         1 TJ2       0.048700
     45 HARA         0.4420     1.8280     3.0320 h1         1 TJ2       0.048700
     46 HNAS         3.7470     0.6670     1.2580 hn         1 TJ2       0.308500
     47 HNAT        -2.0420     0.0190    -2.8190 hn         1 TJ2       0.374000
     48 ClAI        -3.7590    -4.6090    -0.3230 cl         1 TJ2      -0.256000
     49 CAU          0.2260     1.7440    -2.3400 c          1 TJ2       0.729200
     50 ClAH        -5.4650     0.3800     0.5390 cl         1 TJ2      -0.240000
     51 CAA          5.5790     1.5170    -1.2500 c3         1 TJ2      -0.102433
     52 CAB          5.9370    -0.8820    -0.4710 c3         1 TJ2      -0.102433
     53 CAC          6.1630     1.0330     1.1530 c3         1 TJ2      -0.102433
     54 OAD          1.6250     3.4800     1.6720 o          1 TJ2      -0.641100
@<TRIPOS>BOND
     1     1     3 2   
     2     1     4 1   
     3     1    16 1   
     4     2     4 1   
     5     2     7 1   
     6     2    15 1   
     7     4    22 1   
     8     4    26 1   
     9     5    49 1   
    10     6    49 1   
    11     7    36 1   
    12     7    54 2   
    13     8    11 ar  
    14     8    18 ar  
    15     8    37 1   
    16     9    12 ar  
    17     9    18 ar  
    18     9    38 1   
    19    10    13 ar  
    20    10    19 ar  
    21    10    39 1   
    22    11    20 ar  
    23    11    40 1   
    24    12    20 ar  
    25    12    41 1   
    26    13    24 ar  
    27    13    42 1   
    28    14    19 ar  
    29    14    23 ar  
    30    14    43 1   
    31    15    20 1   
    32    15    44 1   
    33    15    45 1   
    34    16    25 1   
    35    16    46 1   
    36    17    21 1   
    37    17    23 1   
    38    17    47 1   
    39    18    50 1   
    40    19    48 1   
    41    21    22 2   
    42    21    49 1   
    43    22    24 1   
    44    23    24 ar  
    45    25    51 1   
    46    25    52 1   
    47    25    53 1   
    48    27    51 1   
    49    28    51 1   
    50    29    51 1   
    51    30    52 1   
    52    31    52 1   
    53    32    52 1   
    54    33    53 1   
    55    34    53 1   
    56    35    53 1   
@<TRIPOS>SUBSTRUCTURE
     1 TJ2         1 TEMP              0 ****  ****    0 ROOT
