@<TRIPOS>MOLECULE
TJ2
   54    56     1     0     0
SMALL
abcg2


@<TRIPOS>ATOM
      1 C            2.8010     0.0880    -0.3760 c          1 TJ2       0.605100
      2 N            1.2640     1.2980     1.2070 n          1 TJ2      -0.411800
      3 O            2.8210    -0.1720    -1.5640 o          1 TJ2      -0.559100
      4 CA           1.4810     0.0850     0.4250 c3         1 TJ2       0.148900
      5 OAE          0.6090     2.4010    -1.5560 o          1 TJ2      -0.705500
      6 OAG         -1.2780     2.0150    -2.6860 o          1 TJ2      -0.705500
      7 CAJ          1.7820     2.4970     0.8700 c          1 TJ2       0.637900
      8 CAK         -3.2570     0.1390     1.3500 ca         1 TJ2      -0.103000
      9 CAL         -2.9160     2.4000     0.5810 ca         1 TJ2      -0.103000
     10 CAM         -0.8050    -3.8890     0.4380 ca         1 TJ2      -0.151000
     11 CAN         -1.9780     0.1430     1.8870 ca         1 TJ2      -0.077000
     12 CAO         -1.6430     2.3870     1.1270 ca         1 TJ2      -0.077000
     13 CAP          0.0130    -2.7800     0.5150 ca         1 TJ2      -0.078000
     14 CAQ         -2.2710    -2.7790    -1.1650 ca         1 TJ2      -0.111000
     15 CAR          0.2730     1.2100     2.2690 c3         1 TJ2       0.147300
     16 NAS          3.8890     0.3100     0.3770 ns         1 TJ2      -0.528900
     17 NAT         -1.5050    -0.4650    -1.6860 na         1 TJ2      -0.184700
     18 CAW         -3.7090     1.2690     0.6920 ca         1 TJ2       0.121000
     19 CAX         -1.9300    -3.8710    -0.3980 ca         1 TJ2       0.113000
     20 CAY         -1.1500     1.2520     1.7660 ca         1 TJ2      -0.099300
     21 CAZ         -0.4690     0.3350    -1.2920 cc         1 TJ2      -0.029300
     22 CBA          0.3070    -0.3530    -0.3900 cd         1 TJ2      -0.197400
     23 CBB         -1.4330    -1.6700    -1.0730 ca         1 TJ2      -0.057200
     24 CBC         -0.2880    -1.6450    -0.2460 ca         1 TJ2      -0.081800
     25 CBF          5.2800     0.3910    -0.0880 c3         1 TJ2       0.142400
     26 HA           1.6330    -0.7040     1.1750 h1         1 TJ2       0.033700
     27 HAA          4.8990     1.2340    -2.0640 hc         1 TJ2       0.040922
     28 HAAA         5.0590     2.4390    -0.7790 hc         1 TJ2       0.040922
     29 HAAB         6.4860     1.6100    -1.4010 hc         1 TJ2       0.040922
     30 HAB          6.7990    -0.9010    -0.9190 hc         1 TJ2       0.040922
     31 HABA         5.6500    -1.7360     0.1290 hc         1 TJ2       0.040922
     32 HABB         5.1790    -1.2620    -1.5080 hc         1 TJ2       0.040922
     33 HAC          5.8080     1.7190     1.5560 hc         1 TJ2       0.040922
     34 HACA         6.0220    -0.0010     1.9190 hc         1 TJ2       0.040922
     35 HACB         7.1670     0.8300     0.8680 hc         1 TJ2       0.040922
     36 HAJ          2.5020     2.4540     0.0500 h5         1 TJ2       0.045200
     37 HAK         -3.8810    -0.7410     1.4300 ha         1 TJ2       0.125000
     38 HAL         -3.2830     3.2810     0.0730 ha         1 TJ2       0.125000
     39 HAM         -0.5800    -4.7730     1.0200 ha         1 TJ2       0.107000
     40 HAN         -1.6170    -0.7500     2.3820 ha         1 TJ2       0.127500
     41 HAO         -1.0210     3.2660     1.0320 ha         1 TJ2       0.127500
     42 HAP          0.8790    -2.8070     1.1650 ha         1 TJ2       0.100000
     43 HAQ         -3.1450    -2.7820    -1.8040 ha         1 TJ2       0.122000
     44 HAR          0.4430     0.2800     2.8150 h1         1 TJ2       0.048700
     45 HARA         0.4530     2.0260     2.9680 h1         1 TJ2       0.048700
     46 HNAS         3.7410     0.4760     1.3610 hn         1 TJ2       0.308500
     47 HNAT        -2.2190    -0.1480    -2.3210 hn         1 TJ2       0.374000
     48 CLAI        -2.9330    -5.2920    -0.4660 cl         1 TJ2      -0.256000
     49 CAU         -0.3690     1.7100    -1.8890 c          1 TJ2       0.729200
     50 CLAH        -5.2960     1.2660    -0.0150 cl         1 TJ2      -0.240000
     51 CAA          5.4330     1.4820    -1.1490 c3         1 TJ2      -0.102433
     52 CAB          5.7480    -0.9590    -0.6310 c3         1 TJ2      -0.102433
     53 CAC          6.1140     0.7570     1.1380 c3         1 TJ2      -0.102433
     54 OAD          1.5430     3.5420     1.4530 o          1 TJ2      -0.641100
@<TRIPOS>BOND
     1     1     3 2   
     2     1     4 1   
     3     1    16 1   
     4     2     4 1   
     5     2     7 1   
     6     2    15 1   
     7     4    22 1   
     8     4    26 1   
     9     5    49 1   
    10     6    49 1   
    11     7    36 1   
    12     7    54 2   
    13     8    11 ar  
    14     8    18 ar  
    15     8    37 1   
    16     9    12 ar  
    17     9    18 ar  
    18     9    38 1   
    19    10    13 ar  
    20    10    19 ar  
    21    10    39 1   
    22    11    20 ar  
    23    11    40 1   
    24    12    20 ar  
    25    12    41 1   
    26    13    24 ar  
    27    13    42 1   
    28    14    19 ar  
    29    14    23 ar  
    30    14    43 1   
    31    15    20 1   
    32    15    44 1   
    33    15    45 1   
    34    16    25 1   
    35    16    46 1   
    36    17    21 1   
    37    17    23 1   
    38    17    47 1   
    39    18    50 1   
    40    19    48 1   
    41    21    22 2   
    42    21    49 1   
    43    22    24 1   
    44    23    24 ar  
    45    25    51 1   
    46    25    52 1   
    47    25    53 1   
    48    27    51 1   
    49    28    51 1   
    50    29    51 1   
    51    30    52 1   
    52    31    52 1   
    53    32    52 1   
    54    33    53 1   
    55    34    53 1   
    56    35    53 1   
@<TRIPOS>SUBSTRUCTURE
     1 TJ2         1 TEMP              0 ****  ****    0 ROOT
