@<TRIPOS>MOLECULE
TJ3
   40    43     1     0     0
SMALL
abcg2


@<TRIPOS>ATOM
      1 C4          -1.7840     2.4990    -0.2010 ca         1 TJ3      -0.098000
      2 C5          -0.8490     1.4380    -0.1160 ca         1 TJ3       0.426900
      3 C7          -2.5990    -0.0070    -0.0570 ca         1 TJ3       0.302500
      4 C10         -4.1110    -3.2180     0.0890 cc         1 TJ3      -0.234000
      5 N12          5.1210    -1.3200     0.1080 ns         1 TJ3      -0.146000
      6 C13          1.5620     0.7980    -0.0410 ca         1 TJ3       0.265000
      7 C15          2.6160    -1.3740     0.1660 ca         1 TJ3      -0.120000
      8 C17          3.9560     0.6190    -0.0710 ca         1 TJ3      -0.120300
      9 C20          5.4080     0.9680    -0.1410 c5         1 TJ3      -0.119100
     10 C24         -4.2740    -1.8680    -0.0520 cd         1 TJ3      -0.079300
     11 N2          -3.5420     0.9070    -0.1320 nb         1 TJ3      -0.240000
     12 C18          3.8470    -0.7630     0.0750 ca         1 TJ3      -0.050000
     13 N8          -3.0070    -1.3400     0.0270 na         1 TJ3       0.097300
     14 C16          2.8280     1.3990    -0.1290 ca         1 TJ3      -0.109000
     15 N22         -2.0720    -2.2940     0.2100 nd         1 TJ3      -0.483800
     16 C9          -2.7210    -3.4300     0.2510 cc         1 TJ3       0.271300
     17 C19          6.1000    -0.3810    -0.0080 c          1 TJ3       0.565000
     18 C14          1.4670    -0.5870     0.1090 ca         1 TJ3      -0.082000
     19 N6          -1.2960     0.1940    -0.0500 nb         1 TJ3      -0.247000
     20 CL1         -1.2760     4.1430    -0.2920 cl         1 TJ3      -0.174000
     21 O21          7.2940    -0.5970    -0.0070 o          1 TJ3      -0.528000
     22 N11          0.4730     1.6810    -0.1050 nu         1 TJ3      -0.915900
     23 C3          -3.1130     2.1670    -0.2080 ca         1 TJ3       0.175900
     24 C23         -2.0130    -4.7230     0.4490 c3         1 TJ3      -0.122400
     25 H1          -4.8930    -3.9600     0.0770 ha         1 TJ3       0.147000
     26 H3           2.5240    -2.4460     0.2800 ha         1 TJ3       0.127000
     27 H4           5.6940     1.4400    -1.0840 hc         1 TJ3       0.090700
     28 H5           5.7330     1.6360     0.6610 hc         1 TJ3       0.090700
     29 H6           2.9150     2.4740    -0.2410 ha         1 TJ3       0.115000
     30 H10          0.5030    -1.0660     0.1790 ha         1 TJ3       0.175000
     31 H11          0.7360     2.6530    -0.1770 hn         1 TJ3       0.510000
     32 H12         -3.8680     2.9420    -0.2740 h4         1 TJ3       0.039100
     33 H13         -2.1990    -5.4030    -0.3830 hc         1 TJ3       0.049700
     34 H14         -0.9390    -4.5690     0.5310 hc         1 TJ3       0.049700
     35 H15         -2.3570    -5.2230     1.3550 hc         1 TJ3       0.049700
     36 C25         -5.5440    -1.1260    -0.2640 c3         1 TJ3      -0.021800
     37 H2           5.3100    -2.3070     0.2020 hn         1 TJ3       0.173000
     38 H7          -5.7470    -0.4200     0.5390 hc         1 TJ3       0.057367
     39 H8          -5.5380    -0.5600    -1.1950 hc         1 TJ3       0.057367
     40 H9          -6.3590    -1.8460    -0.3050 hc         1 TJ3       0.057367
@<TRIPOS>BOND
     1     1     2 ar  
     2     1    20 1   
     3     1    23 ar  
     4     2    19 ar  
     5     2    22 1   
     6     3    11 ar  
     7     3    13 1   
     8     3    19 ar  
     9     4    10 2   
    10     4    16 1   
    11     4    25 1   
    12     5    12 1   
    13     5    17 1   
    14     5    37 1   
    15     6    14 ar  
    16     6    18 ar  
    17     6    22 1   
    18     7    12 ar  
    19     7    18 ar  
    20     7    26 1   
    21     8     9 1   
    22     8    12 ar  
    23     8    14 ar  
    24     9    17 1   
    25     9    27 1   
    26     9    28 1   
    27    10    13 1   
    28    10    36 1   
    29    11    23 ar  
    30    13    15 1   
    31    14    29 1   
    32    15    16 2   
    33    16    24 1   
    34    17    21 2   
    35    18    30 1   
    36    22    31 1   
    37    23    32 1   
    38    24    33 1   
    39    24    34 1   
    40    24    35 1   
    41    36    38 1   
    42    36    39 1   
    43    36    40 1   
@<TRIPOS>SUBSTRUCTURE
     1 TJ3         1 TEMP              0 ****  ****    0 ROOT
