@<TRIPOS>MOLECULE
TJ3
   40    43     1     0     0
SMALL
No Charge or Current Charge


@<TRIPOS>ATOM
      1 C4          -1.8750     2.3350     1.1030 ca         1 TJ3      -0.098000
      2 C5          -0.9590     1.3300     0.7580 ca         1 TJ3       0.426900
      3 C7          -2.6590    -0.2580     0.7590 ca         1 TJ3       0.302500
      4 C10         -3.7100    -3.3040    -0.5410 cc         1 TJ3      -0.234000
      5 N12          5.1470    -0.9680    -0.6280 ns         1 TJ3      -0.146000
      6 C13          1.5430     0.8890     0.2860 ca         1 TJ3       0.265000
      7 C15          2.8740    -1.1790     0.4530 ca         1 TJ3      -0.120000
      8 C17          3.7770     0.7900    -0.6530 ca         1 TJ3      -0.120300
      9 C20          5.0570     1.2160    -1.3670 c5         1 TJ3      -0.119100
     10 C24         -3.3840    -1.9940    -0.7210 cd         1 TJ3      -0.079300
     11 N2          -3.5920     0.6650     1.1060 nb         1 TJ3      -0.240000
     12 C18          3.8910    -0.5170    -0.2390 ca         1 TJ3      -0.050000
     13 N8          -3.0580    -1.5860     0.5790 na         1 TJ3       0.097300
     14 C16          2.6080     1.5200    -0.3970 ca         1 TJ3      -0.109000
     15 N22         -3.1600    -2.5680     1.5530 nd         1 TJ3      -0.483800
     16 C9          -3.5600    -3.5950     0.8290 cc         1 TJ3       0.271300
     17 C19          5.9480    -0.0660    -1.3000 c          1 TJ3       0.565000
     18 C14          1.6890    -0.4570     0.7180 ca         1 TJ3      -0.082000
     19 N6          -1.3530     0.0590     0.5810 nb         1 TJ3      -0.247000
     20 Cl1         -1.3960     4.0240     1.3160 cl         1 TJ3      -0.174000
     21 O21          7.0800    -0.2660    -1.7240 o          1 TJ3      -0.528000
     22 N11          0.3860     1.6390     0.5410 nu         1 TJ3      -0.915900
     23 C3          -3.2080     1.9440     1.2740 ca         1 TJ3       0.175900
     24 C23         -3.8340    -4.9570     1.3970 c3         1 TJ3      -0.122400
     25 H1          -4.0290    -4.0120    -1.3000 ha         1 TJ3       0.147000
     26 H3           2.9920    -2.2090     0.7820 ha         1 TJ3       0.127000
     27 H4           4.9140     1.4950    -2.4160 hc         1 TJ3       0.090700
     28 H5           5.5870     2.0430    -0.8840 hc         1 TJ3       0.090700
     29 H6           2.5230     2.5510    -0.7280 ha         1 TJ3       0.115000
     30 H10          0.8960    -0.9430     1.2770 ha         1 TJ3       0.175000
     31 H11          0.5350     2.6480     0.4930 hn         1 TJ3       0.510000
     32 H12         -3.9810     2.6600     1.5460 h4         1 TJ3       0.039100
     33 H13         -3.1720    -5.7050     0.9450 hc         1 TJ3       0.049700
     34 H14         -3.6760    -4.9770     2.4820 hc         1 TJ3       0.049700
     35 H15         -4.8700    -5.2570     1.2000 hc         1 TJ3       0.049700
     36 C25         -3.3640    -1.1510    -1.9730 c3         1 TJ3      -0.021800
     37 H2           5.4600    -1.9090    -0.4280 hn         1 TJ3       0.173000
     38 H7          -4.0220    -0.2790    -1.8750 hc         1 TJ3       0.057367
     39 H8          -2.3520    -0.7890    -2.1900 hc         1 TJ3       0.057367
     40 H9          -3.7040    -1.7270    -2.8410 hc         1 TJ3       0.057367
@<TRIPOS>BOND
     1     1     2 ar  
     2     1    20 1   
     3     1    23 ar  
     4     2    19 ar  
     5     2    22 1   
     6     3    11 ar  
     7     3    13 1   
     8     3    19 ar  
     9     4    10 2   
    10     4    16 1   
    11     4    25 1   
    12     5    12 1   
    13     5    17 1   
    14     5    37 1   
    15     6    14 ar  
    16     6    18 ar  
    17     6    22 1   
    18     7    12 ar  
    19     7    18 ar  
    20     7    26 1   
    21     8     9 1   
    22     8    12 ar  
    23     8    14 ar  
    24     9    17 1   
    25     9    27 1   
    26     9    28 1   
    27    10    13 1   
    28    10    36 1   
    29    11    23 ar  
    30    13    15 1   
    31    14    29 1   
    32    15    16 2   
    33    16    24 1   
    34    17    21 2   
    35    18    30 1   
    36    22    31 1   
    37    23    32 1   
    38    24    33 1   
    39    24    34 1   
    40    24    35 1   
    41    36    38 1   
    42    36    39 1   
    43    36    40 1   
@<TRIPOS>SUBSTRUCTURE
     1 TJ3         1 TEMP              0 ****  ****    0 ROOT
