@<TRIPOS>MOLECULE
TJ4
   19    19     1     0     0
SMALL
bcc


@<TRIPOS>ATOM
      1 O3          38.0570   -26.9390   -13.1710 o          1 TJ4      -0.674500
      2 C9          37.4320   -27.1530   -14.2020 c          1 TJ4       0.817900
      3 N2          37.1930   -28.4350   -14.6300 ns         1 TJ4      -0.428100
      4 N1          36.9320   -26.1570   -14.9890 nc         1 TJ4      -0.720100
      5 C4          36.2790   -26.4510   -16.0820 cd         1 TJ4       0.543600
      6 C5          35.7520   -25.2940   -16.8720 c3         1 TJ4      -0.134400
      7 C3          36.0440   -27.7800   -16.5570 cd         1 TJ4      -0.347800
      8 C6          35.2750   -27.9720   -17.8300 c3         1 TJ4      -0.014900
      9 C2          36.5420   -28.7790   -15.7620 cc         1 TJ4       0.027400
     10 C1          36.4830   -30.3110   -15.9630 c          1 TJ4       0.925800
     11 O1          36.1380   -30.7310   -17.0730 o          1 TJ4      -0.792800
     12 O2          36.8200   -30.9620   -14.9590 o          1 TJ4      -0.792800
     13 H1          36.0240   -24.3540   -16.3990 hc         1 TJ4       0.043033
     14 H2          36.1450   -25.3040   -17.8900 hc         1 TJ4       0.043033
     15 H3          34.6650   -25.3430   -16.9560 hc         1 TJ4       0.043033
     16 H5          35.1230   -29.0210   -18.0480 hc         1 TJ4       0.033700
     17 H6          34.2990   -27.4870   -17.7700 hc         1 TJ4       0.033700
     18 H7          35.7970   -27.5230   -18.6770 hc         1 TJ4       0.033700
     19 H9          37.4980   -29.2160   -14.0570 hn         1 TJ4       0.359500
@<TRIPOS>BOND
     1     1     2 2   
     2     2     3 1   
     3     2     4 1   
     4     3     9 1   
     5     3    19 1   
     6     4     5 2   
     7     5     6 1   
     8     5     7 1   
     9     6    13 1   
    10     6    14 1   
    11     6    15 1   
    12     7     8 1   
    13     7     9 2   
    14     8    16 1   
    15     8    17 1   
    16     8    18 1   
    17     9    10 1   
    18    10    11 1   
    19    10    12 1   
@<TRIPOS>SUBSTRUCTURE
     1 TJ4         1 TEMP              0 ****  ****    0 ROOT
