@<TRIPOS>MOLECULE
TJ4
   19    19     1     0     0
SMALL
No Charge or Current Charge


@<TRIPOS>ATOM
      1 O3          37.9800   -26.9180   -13.1360 o          1 TJ4      -0.599000
      2 C9          37.3910   -27.1570   -14.1710 c          1 TJ4       0.675400
      3 N2          37.2400   -28.4190   -14.6180 ns         1 TJ4      -0.474600
      4 N1          36.8500   -26.1750   -14.9410 nc         1 TJ4      -0.720100
      5 C4          36.2060   -26.4270   -16.0720 cd         1 TJ4       0.543600
      6 C5          35.6780   -25.2060   -16.7850 c3         1 TJ4      -0.134400
      7 C3          36.0320   -27.7850   -16.5730 cd         1 TJ4      -0.347800
      8 C6          35.2910   -28.0560   -17.8730 c3         1 TJ4      -0.014900
      9 C2          36.5880   -28.7960   -15.7820 cc         1 TJ4       0.027400
     10 C1          36.5650   -30.2980   -16.0490 c          1 TJ4       0.715200
     11 O1          36.0190   -30.7540   -17.0450 o          1 TJ4      -0.687500
     12 O2          37.1130   -31.0270   -15.2280 o          1 TJ4      -0.687500
     13 H1          35.9110   -24.2780   -16.2490 hc         1 TJ4       0.043033
     14 H2          36.1130   -25.1220   -17.7870 hc         1 TJ4       0.043033
     15 H3          34.5880   -25.2580   -16.8880 hc         1 TJ4       0.043033
     16 H5          34.4170   -28.6950   -17.7000 hc         1 TJ4       0.033700
     17 H6          34.9220   -27.1490   -18.3620 hc         1 TJ4       0.033700
     18 H7          35.9410   -28.5590   -18.5980 hc         1 TJ4       0.033700
     19 H9          37.6510   -29.1340   -14.0280 hn         1 TJ4       0.473000
@<TRIPOS>BOND
     1     1     2 2   
     2     2     3 1   
     3     2     4 1   
     4     3     9 1   
     5     3    19 1   
     6     4     5 2   
     7     5     6 1   
     8     5     7 1   
     9     6    13 1   
    10     6    14 1   
    11     6    15 1   
    12     7     8 1   
    13     7     9 2   
    14     8    16 1   
    15     8    17 1   
    16     8    18 1   
    17     9    10 1   
    18    10    11 1   
    19    10    12 1   
@<TRIPOS>SUBSTRUCTURE
     1 TJ4         1 TEMP              0 ****  ****    0 ROOT
