@<TRIPOS>MOLECULE
TJ5
   39    41     1     0     0
SMALL
No Charge or Current Charge


@<TRIPOS>ATOM
      1 C10        121.7270   106.1540   107.0450 c          1 TJ5       0.613700
      2 C13        119.1970   105.6030   104.2260 ca         1 TJ5      -0.124000
      3 C15        121.4150   105.2150   103.3330 ca         1 TJ5      -0.124000
      4 C17        119.4220   104.9520   101.7810 cp         1 TJ5      -0.021000
      5 C20        118.2950   104.3720    99.2360 ca         1 TJ5      -0.119000
      6 C21        119.5350   105.0230    99.3240 ca         1 TJ5      -0.116500
      7 C22        120.0920   105.3100   100.5830 ca         1 TJ5      -0.099500
      8 C01        125.2170   105.9760   108.2660 c5         1 TJ5      -0.094400
      9 C02        123.7070   106.3370   108.3800 c5         1 TJ5       0.146300
     10 C03        123.7150   107.8990   108.5710 c5         1 TJ5       0.133800
     11 C05        125.8530   107.3090   107.7730 c5         1 TJ5       0.013500
     12 C06        125.7020   107.4510   106.1870 c          1 TJ5       0.733000
     13 C11        121.1480   105.8420   105.6840 ca         1 TJ5      -0.127600
     14 C12        119.7520   105.8910   105.4850 ca         1 TJ5      -0.049500
     15 C14        120.0150   105.2590   103.1220 cp         1 TJ5      -0.030000
     16 C16        121.9760   105.5000   104.5900 ca         1 TJ5      -0.049500
     17 C18        118.1700   104.2950   101.6650 ca         1 TJ5      -0.099500
     18 C19        117.6120   104.0080   100.4070 ca         1 TJ5      -0.116500
     19 N04        125.1470   108.3060   108.6520 n7         1 TJ5      -0.794400
     20 O07        125.1680   108.4430   105.7020 o          1 TJ5      -0.724000
     21 O08        126.2080   106.5950   105.4710 o          1 TJ5      -0.724000
     22 O09        123.0950   106.0050   107.1040 os         1 TJ5      -0.400100
     23 O23        121.0300   106.4980   107.9940 o          1 TJ5      -0.530000
     24 H1         118.1190   105.6630   104.1040 ha         1 TJ5       0.111500
     25 H2         122.0780   104.9420   102.5160 ha         1 TJ5       0.111500
     26 H3         117.8640   104.1500    98.2620 ha         1 TJ5       0.103000
     27 H4         120.0650   105.3100    98.4180 ha         1 TJ5       0.105500
     28 H5         121.0470   105.8270   100.6280 ha         1 TJ5       0.119000
     29 H6         125.4070   105.1280   107.5980 hc         1 TJ5       0.045200
     30 H7         125.6170   105.6970   109.2480 hc         1 TJ5       0.045200
     31 H8         123.2120   105.7900   109.1940 h1         1 TJ5       0.038700
     32 H9         123.1690   108.1980   109.4770 h1         1 TJ5       0.051200
     33 H10        123.2290   108.3970   107.7210 h1         1 TJ5       0.051200
     34 H11        126.9320   107.3210   107.9780 h1         1 TJ5       0.043700
     35 H12        119.0890   106.1550   106.3070 ha         1 TJ5       0.150000
     36 H13        123.0570   105.4520   104.7030 ha         1 TJ5       0.150000
     37 H14        117.6310   103.9930   102.5600 ha         1 TJ5       0.119000
     38 H15        116.6530   103.5000   100.3410 ha         1 TJ5       0.105500
     39 H16        125.4660   108.1600   109.6160 hn         1 TJ5       0.353000
@<TRIPOS>BOND
     1     1    13 1   
     2     1    22 1   
     3     1    23 2   
     4     2    14 ar  
     5     2    15 ar  
     6     2    24 1   
     7     3    15 ar  
     8     3    16 ar  
     9     3    25 1   
    10     4     7 ar  
    11     4    15 1   
    12     4    17 ar  
    13     5     6 ar  
    14     5    18 ar  
    15     5    26 1   
    16     6     7 ar  
    17     6    27 1   
    18     7    28 1   
    19     8     9 1   
    20     8    11 1   
    21     8    29 1   
    22     8    30 1   
    23     9    10 1   
    24     9    22 1   
    25     9    31 1   
    26    10    19 1   
    27    10    32 1   
    28    10    33 1   
    29    11    12 1   
    30    11    19 1   
    31    11    34 1   
    32    12    20 1   
    33    12    21 1   
    34    13    14 ar  
    35    13    16 ar  
    36    14    35 1   
    37    16    36 1   
    38    17    18 ar  
    39    17    37 1   
    40    18    38 1   
    41    19    39 1   
@<TRIPOS>SUBSTRUCTURE
     1 TJ5         1 TEMP              0 ****  ****    0 ROOT
