@<TRIPOS>MOLECULE
TJ5
   39    41     1     0     0
SMALL
abcg2


@<TRIPOS>ATOM
      1 C10        121.6680   106.1380   107.0560 c          1 TJ5       0.613700
      2 C13        119.2330   105.5710   104.2560 ca         1 TJ5      -0.124000
      3 C15        121.4400   105.2430   103.3830 ca         1 TJ5      -0.124000
      4 C17        119.4900   104.9810   101.8420 cp         1 TJ5      -0.021000
      5 C20        118.4050   104.4380    99.3180 ca         1 TJ5      -0.119000
      6 C21        119.5900   105.1540    99.4310 ca         1 TJ5      -0.116500
      7 C22        120.1270   105.4220   100.6800 ca         1 TJ5      -0.099500
      8 C01        125.1040   105.9540   108.2070 c5         1 TJ5      -0.094400
      9 C02        123.6500   106.3740   108.3500 c5         1 TJ5       0.146300
     10 C03        123.7270   107.9130   108.5170 c5         1 TJ5       0.133800
     11 C05        125.7650   107.2140   107.6280 c5         1 TJ5       0.013500
     12 C06        125.5820   107.2930   106.0920 c          1 TJ5       0.733000
     13 C11        121.1440   105.8180   105.7040 ca         1 TJ5      -0.127600
     14 C12        119.7660   105.8450   105.5020 ca         1 TJ5      -0.049500
     15 C14        120.0600   105.2670   103.1730 cp         1 TJ5      -0.030000
     16 C16        121.9790   105.5130   104.6290 ca         1 TJ5      -0.049500
     17 C18        118.2980   104.2650   101.7160 ca         1 TJ5      -0.099500
     18 C19        117.7620   103.9940   100.4660 ca         1 TJ5      -0.116500
     19 N04        125.1250   108.3040   108.3570 n7         1 TJ5      -0.794400
     20 O07        124.9920   108.2780   105.6150 o          1 TJ5      -0.724000
     21 O08        126.0700   106.3300   105.4630 o          1 TJ5      -0.724000
     22 O09        122.9800   106.0100   107.1290 os         1 TJ5      -0.400100
     23 O23        120.9680   106.4780   107.9810 o          1 TJ5      -0.530000
     24 H1         118.1600   105.6180   104.1210 ha         1 TJ5       0.111500
     25 H2         122.1070   104.9910   102.5690 ha         1 TJ5       0.111500
     26 H3         117.9850   104.2290    98.3430 ha         1 TJ5       0.103000
     27 H4         120.0950   105.5110    98.5430 ha         1 TJ5       0.105500
     28 H5         121.0410   105.9990   100.7510 ha         1 TJ5       0.119000
     29 H6         125.2330   105.0520   107.6110 hc         1 TJ5       0.045200
     30 H7         125.5070   105.7500   109.2020 hc         1 TJ5       0.045200
     31 H8         123.1460   105.8860   109.1850 h1         1 TJ5       0.038700
     32 H9         123.3500   108.2230   109.4910 h1         1 TJ5       0.051200
     33 H10        123.1080   108.4020   107.7630 h1         1 TJ5       0.051200
     34 H11        126.8390   107.2250   107.8350 h1         1 TJ5       0.043700
     35 H12        119.1040   106.0890   106.3210 ha         1 TJ5       0.150000
     36 H13        123.0530   105.4760   104.7550 ha         1 TJ5       0.150000
     37 H14        117.7930   103.8950   102.6000 ha         1 TJ5       0.119000
     38 H15        116.8410   103.4300   100.3890 ha         1 TJ5       0.105500
     39 H16        125.5470   108.3490   109.2770 hn         1 TJ5       0.353000
@<TRIPOS>BOND
     1     1    13 1   
     2     1    22 1   
     3     1    23 2   
     4     2    14 ar  
     5     2    15 ar  
     6     2    24 1   
     7     3    15 ar  
     8     3    16 ar  
     9     3    25 1   
    10     4     7 ar  
    11     4    15 1   
    12     4    17 ar  
    13     5     6 ar  
    14     5    18 ar  
    15     5    26 1   
    16     6     7 ar  
    17     6    27 1   
    18     7    28 1   
    19     8     9 1   
    20     8    11 1   
    21     8    29 1   
    22     8    30 1   
    23     9    10 1   
    24     9    22 1   
    25     9    31 1   
    26    10    19 1   
    27    10    32 1   
    28    10    33 1   
    29    11    12 1   
    30    11    19 1   
    31    11    34 1   
    32    12    20 1   
    33    12    21 1   
    34    13    14 ar  
    35    13    16 ar  
    36    14    35 1   
    37    16    36 1   
    38    17    18 ar  
    39    17    37 1   
    40    18    38 1   
    41    19    39 1   
@<TRIPOS>SUBSTRUCTURE
     1 TJ5         1 TEMP              0 ****  ****    0 ROOT
