@<TRIPOS>MOLECULE
TJ7
   45    46     1     0     0
SMALL
No Charge or Current Charge


@<TRIPOS>ATOM
      1 O7          -0.9280    -0.7330     2.3560 o          1 TJ7      -0.472100
      2 C15         -1.1230     0.3860     1.8790 c          1 TJ7       0.617900
      3 C6          -0.6360     0.8690     0.4750 c3         1 TJ7       0.238400
      4 O5          -0.3210     2.2920     0.5690 os         1 TJ7      -0.449000
      5 C14          0.2080     2.9420    -0.6060 c3         1 TJ7       0.161900
      6 C           -1.8380     0.7030    -0.5430 c5         1 TJ7       0.321500
      7 S           -2.2130    -1.0850    -0.9240 ss         1 TJ7      -0.526000
      8 C3          -4.0140    -0.9240    -0.5340 c5         1 TJ7       0.117000
      9 C4          -4.7740    -0.7130    -1.8730 c3         1 TJ7      -0.067100
     10 C5          -4.4870    -2.2470     0.1150 c3         1 TJ7      -0.067100
     11 C1          -4.0410     0.2840     0.4540 c5         1 TJ7       0.027500
     12 C2          -5.5390     0.7280     0.7200 c          1 TJ7       0.730000
     13 O1          -6.1070     0.3130     1.7210 o          1 TJ7      -0.729500
     14 O           -6.0580     1.5700    -0.0050 o          1 TJ7      -0.729500
     15 N           -3.1280     1.3340    -0.1460 n7         1 TJ7      -0.848400
     16 N1           0.5350     0.0670     0.0570 ns         1 TJ7      -0.521900
     17 C7           1.7460     0.0230     0.7070 c          1 TJ7       0.647100
     18 O2           1.9630     0.6780     1.7180 o          1 TJ7      -0.617100
     19 C8           2.7820    -0.8780     0.0520 c3         1 TJ7      -0.243400
     20 C9           2.9800    -2.0850     0.9640 c          1 TJ7       0.740000
     21 O4           3.5510    -1.9370     2.0340 o          1 TJ7      -0.702500
     22 O3           2.5990    -3.1710     0.5530 o          1 TJ7      -0.702500
     23 C10          4.0550    -0.1670    -0.3570 cc         1 TJ7      -0.043300
     24 C13          4.4890    -0.1410    -1.7100 cc         1 TJ7      -0.114000
     25 C12          5.6540     0.5460    -1.9220 cd         1 TJ7      -0.281000
     26 S1           6.2820     1.2100    -0.4100 ss         1 TJ7       0.070000
     27 C11          4.9110     0.5160     0.4700 cd         1 TJ7      -0.164000
     28 H1          -1.6830     1.1500     2.4630 h4         1 TJ7      -0.000800
     29 H2          -0.5280     2.9660    -1.4180 h1         1 TJ7       0.015367
     30 H3           0.4740     3.9800    -0.3700 h1         1 TJ7       0.015367
     31 H4           1.1140     2.4380    -0.9660 h1         1 TJ7       0.015367
     32 H5          -1.5180     1.1440    -1.4950 h2         1 TJ7       0.042700
     33 H6          -4.4590     0.2080    -2.3780 hc         1 TJ7       0.035533
     34 H7          -4.5890    -1.5430    -2.5650 hc         1 TJ7       0.035533
     35 H8          -5.8570    -0.6550    -1.7170 hc         1 TJ7       0.035533
     36 H9          -5.5540    -2.2110     0.3660 hc         1 TJ7       0.035533
     37 H10         -4.3350    -3.0990    -0.5590 hc         1 TJ7       0.035533
     38 H11         -3.9350    -2.4550     1.0400 hc         1 TJ7       0.035533
     39 H12         -3.6510    -0.0370     1.4280 h1         1 TJ7       0.073700
     40 H14         -3.5860     1.6900    -0.9940 hn         1 TJ7       0.448000
     41 H16          0.4260    -0.5410    -0.7450 hn         1 TJ7       0.323500
     42 H17          2.3170    -1.2700    -0.8610 hc         1 TJ7       0.046700
     43 H19          3.9330    -0.6300    -2.5040 ha         1 TJ7       0.115000
     44 H20          6.1800     0.7050    -2.8560 h4         1 TJ7       0.119000
     45 H21          4.8270     0.6580     1.5410 h4         1 TJ7       0.181000
@<TRIPOS>BOND
     1     1     2 2   
     2     2     3 1   
     3     2    28 1   
     4     3     4 1   
     5     3     6 1   
     6     3    16 1   
     7     4     5 1   
     8     5    29 1   
     9     5    30 1   
    10     5    31 1   
    11     6     7 1   
    12     6    15 1   
    13     6    32 1   
    14     7     8 1   
    15     8     9 1   
    16     8    10 1   
    17     8    11 1   
    18     9    33 1   
    19     9    34 1   
    20     9    35 1   
    21    10    36 1   
    22    10    37 1   
    23    10    38 1   
    24    11    12 1   
    25    11    15 1   
    26    11    39 1   
    27    12    13 1   
    28    12    14 1   
    29    15    40 1   
    30    16    17 1   
    31    16    41 1   
    32    17    18 2   
    33    17    19 1   
    34    19    20 1   
    35    19    23 1   
    36    19    42 1   
    37    20    21 1   
    38    20    22 1   
    39    23    24 1   
    40    23    27 2   
    41    24    25 2   
    42    24    43 1   
    43    25    26 1   
    44    25    44 1   
    45    26    27 1   
    46    27    45 1   
@<TRIPOS>SUBSTRUCTURE
     1 TJ7         1 TEMP              0 ****  ****    0 ROOT
