@<TRIPOS>MOLECULE
TJ7
   45    46     1     0     0
SMALL
abcg2


@<TRIPOS>ATOM
      1 O7          -0.7540    -0.3280     2.0670 o          1 TJ7      -0.472100
      2 C15         -0.8640     0.7380     1.5300 c          1 TJ7       0.617900
      3 C6          -0.6660     0.9680     0.0290 c3         1 TJ7       0.238400
      4 O5          -0.4710     2.3560    -0.0640 os         1 TJ7      -0.449000
      5 C14         -0.1350     2.8850    -1.3270 c3         1 TJ7       0.161900
      6 C           -1.9470     0.5560    -0.7430 c5         1 TJ7       0.321500
      7 S           -2.2240    -1.2660    -0.6890 ss         1 TJ7      -0.526000
      8 C3          -3.9540    -1.0910    -0.0900 c5         1 TJ7       0.117000
      9 C4          -4.9110    -1.1730    -1.2760 c3         1 TJ7      -0.067100
     10 C5          -4.2390    -2.1990     0.9130 c3         1 TJ7      -0.067100
     11 C1          -3.9360     0.3120     0.5720 c5         1 TJ7       0.027500
     12 C2          -5.3640     0.8800     0.7430 c          1 TJ7       0.730000
     13 O1          -6.0250     0.4140     1.6900 o          1 TJ7      -0.729500
     14 O           -5.7360     1.7290    -0.0890 o          1 TJ7      -0.729500
     15 N           -3.1150     1.2000    -0.2220 n7         1 TJ7      -0.848400
     16 N1           0.4410     0.2110    -0.4670 ns         1 TJ7      -0.521900
     17 C7           1.6610     0.2520     0.1270 c          1 TJ7       0.647100
     18 O2           1.8590     0.9070     1.1320 o          1 TJ7      -0.617100
     19 C8           2.7050    -0.5940    -0.5730 c3         1 TJ7      -0.243400
     20 C9           2.4540    -2.0950    -0.1950 c          1 TJ7       0.740000
     21 O4           2.3050    -2.3230     1.0150 o          1 TJ7      -0.702500
     22 O3           2.4480    -2.9020    -1.1380 o          1 TJ7      -0.702500
     23 C10          4.1020    -0.1840    -0.2220 cc         1 TJ7      -0.043300
     24 C13          5.0100     0.3740    -1.1710 cc         1 TJ7      -0.114000
     25 C12          6.2280     0.6690    -0.6410 cd         1 TJ7      -0.281000
     26 S1           6.2890     0.2740     1.0250 ss         1 TJ7       0.070000
     27 C11          4.6720    -0.2930     1.0130 cd         1 TJ7      -0.164000
     28 H1          -1.1700     1.6460     2.0790 h4         1 TJ7      -0.000800
     29 H2          -0.9630     2.8470    -2.0390 h1         1 TJ7       0.015367
     30 H3           0.1250     3.9300    -1.1680 h1         1 TJ7       0.015367
     31 H4           0.7280     2.3840    -1.7740 h1         1 TJ7       0.015367
     32 H5          -1.7980     0.8480    -1.7860 h2         1 TJ7       0.042700
     33 H6          -4.7690    -0.3480    -1.9740 hc         1 TJ7       0.035533
     34 H7          -4.7620    -2.1030    -1.8250 hc         1 TJ7       0.035533
     35 H8          -5.9490    -1.1530    -0.9360 hc         1 TJ7       0.035533
     36 H9          -5.2400    -2.0740     1.3250 hc         1 TJ7       0.035533
     37 H10         -4.1890    -3.1830     0.4450 hc         1 TJ7       0.035533
     38 H11         -3.5250    -2.1760     1.7360 hc         1 TJ7       0.035533
     39 H12         -3.5000     0.1910     1.5690 h1         1 TJ7       0.073700
     40 H14         -3.6820     1.6000    -0.9570 hn         1 TJ7       0.448000
     41 H16          0.3430    -0.2910    -1.3360 hn         1 TJ7       0.323500
     42 H17          2.5770    -0.4800    -1.6520 hc         1 TJ7       0.046700
     43 H19          4.7560     0.5460    -2.2080 ha         1 TJ7       0.115000
     44 H20          7.0860     1.0950    -1.1380 h4         1 TJ7       0.119000
     45 H21          4.2260    -0.6800     1.9140 h4         1 TJ7       0.181000
@<TRIPOS>BOND
     1     1     2 2   
     2     2     3 1   
     3     2    28 1   
     4     3     4 1   
     5     3     6 1   
     6     3    16 1   
     7     4     5 1   
     8     5    29 1   
     9     5    30 1   
    10     5    31 1   
    11     6     7 1   
    12     6    15 1   
    13     6    32 1   
    14     7     8 1   
    15     8     9 1   
    16     8    10 1   
    17     8    11 1   
    18     9    33 1   
    19     9    34 1   
    20     9    35 1   
    21    10    36 1   
    22    10    37 1   
    23    10    38 1   
    24    11    12 1   
    25    11    15 1   
    26    11    39 1   
    27    12    13 1   
    28    12    14 1   
    29    15    40 1   
    30    16    17 1   
    31    16    41 1   
    32    17    18 2   
    33    17    19 1   
    34    19    20 1   
    35    19    23 1   
    36    19    42 1   
    37    20    21 1   
    38    20    22 1   
    39    23    24 1   
    40    23    27 2   
    41    24    25 2   
    42    24    43 1   
    43    25    26 1   
    44    25    44 1   
    45    26    27 1   
    46    27    45 1   
@<TRIPOS>SUBSTRUCTURE
     1 TJ7         1 TEMP              0 ****  ****    0 ROOT
