@<TRIPOS>MOLECULE
TJ8
   31    33     1     0     0
SMALL
No Charge or Current Charge


@<TRIPOS>ATOM
      1 C02        -21.4720   -20.8240    -4.4460 c          1 TJ8       0.583500
      2 C03        -22.2140   -21.1750    -3.1780 ca         1 TJ8      -0.176600
      3 C04        -21.7030   -20.8440    -1.9000 ca         1 TJ8       0.029100
      4 C06        -22.4190   -21.1850    -0.7400 ca         1 TJ8      -0.098000
      5 C07        -23.4540   -21.8490    -3.2600 ca         1 TJ8      -0.047000
      6 C08        -24.1630   -22.1900    -2.0960 ca         1 TJ8      -0.119000
      7 C09        -23.6460   -21.8700    -0.8290 ca         1 TJ8       0.029800
      8 C11        -23.8280   -22.7870     1.4640 cc         1 TJ8       0.475000
      9 C12        -22.5000   -23.4110     1.6070 ca         1 TJ8      -0.133500
     10 C13        -21.8720   -24.0720     0.5250 ca         1 TJ8      -0.082500
     11 C14        -20.6220   -24.6940     0.6930 ca         1 TJ8      -0.115000
     12 C15        -19.9930   -24.6860     1.9470 ca         1 TJ8      -0.097000
     13 C16        -20.6210   -24.0660     3.0380 ca         1 TJ8      -0.115000
     14 C17        -21.8710   -23.4430     2.8720 ca         1 TJ8      -0.082500
     15 C19        -25.8400   -22.0860     1.8900 cd         1 TJ8       0.240900
     16 C20        -25.6270   -21.7580     0.5740 cc         1 TJ8      -0.216000
     17 N10        -24.3580   -22.2150     0.3210 na         1 TJ8      -0.084300
     18 N18        -24.7290   -22.7110     2.4370 nd         1 TJ8      -0.660000
     19 Br5        -20.0310   -19.9280    -1.6730 br         1 TJ8      -0.073100
     20 H1         -20.5030   -20.2940    -4.3370 h4         1 TJ8       0.015200
     21 H4         -22.0140   -20.9160     0.2330 ha         1 TJ8       0.153000
     22 H5         -23.8740   -22.1140    -4.2290 ha         1 TJ8       0.144000
     23 H6         -25.1130   -22.7130    -2.1800 ha         1 TJ8       0.138000
     24 H7         -22.3510   -24.1220    -0.4500 ha         1 TJ8       0.123000
     25 H8         -20.1470   -25.1910    -0.1500 ha         1 TJ8       0.116500
     26 H9         -19.0260   -25.1690     2.0760 ha         1 TJ8       0.115000
     27 H10        -20.1420   -24.0700     4.0150 ha         1 TJ8       0.116500
     28 H11        -22.3450   -22.9710     3.7300 ha         1 TJ8       0.123000
     29 H12        -26.7270   -21.8910     2.4820 h4         1 TJ8       0.042100
     30 H13        -26.2460   -21.2420    -0.1480 h4         1 TJ8       0.162000
     31 O1         -21.8960   -21.0990    -5.5650 o          1 TJ8      -0.507100
@<TRIPOS>BOND
     1     1     2 1   
     2     1    20 1   
     3     1    31 2   
     4     2     3 ar  
     5     2     5 ar  
     6     3     4 ar  
     7     3    19 1   
     8     4     7 ar  
     9     4    21 1   
    10     5     6 ar  
    11     5    22 1   
    12     6     7 ar  
    13     6    23 1   
    14     7    17 1   
    15     8     9 1   
    16     8    17 1   
    17     8    18 2   
    18     9    10 ar  
    19     9    14 ar  
    20    10    11 ar  
    21    10    24 1   
    22    11    12 ar  
    23    11    25 1   
    24    12    13 ar  
    25    12    26 1   
    26    13    14 ar  
    27    13    27 1   
    28    14    28 1   
    29    15    16 2   
    30    15    18 1   
    31    15    29 1   
    32    16    17 1   
    33    16    30 1   
@<TRIPOS>SUBSTRUCTURE
     1 TJ8         1 TEMP              0 ****  ****    0 ROOT
