@<TRIPOS>MOLECULE
TJ8
   31    33     1     0     0
SMALL
bcc


@<TRIPOS>ATOM
      1 C02        -21.4860   -20.8470    -4.4100 c          1 TJ8       0.583500
      2 C03        -22.1840   -21.1600    -3.1420 ca         1 TJ8      -0.176600
      3 C04        -21.6660   -20.8750    -1.8760 ca         1 TJ8       0.029100
      4 C06        -22.3630   -21.1970    -0.7240 ca         1 TJ8      -0.116000
      5 C07        -23.4320   -21.7790    -3.2120 ca         1 TJ8      -0.065000
      6 C08        -24.1350   -22.1240    -2.0760 ca         1 TJ8      -0.137000
      7 C09        -23.5910   -21.8350    -0.8320 ca         1 TJ8       0.029800
      8 C11        -23.8420   -22.8120     1.4560 cc         1 TJ8       0.475000
      9 C12        -22.5210   -23.4320     1.5840 ca         1 TJ8      -0.133500
     10 C13        -21.9330   -24.1430     0.5370 ca         1 TJ8      -0.100500
     11 C14        -20.6940   -24.7410     0.7060 ca         1 TJ8      -0.133000
     12 C15        -20.0300   -24.6430     1.9220 ca         1 TJ8      -0.115000
     13 C16        -20.6160   -23.9490     2.9720 ca         1 TJ8      -0.133000
     14 C17        -21.8540   -23.3480     2.8060 ca         1 TJ8      -0.100500
     15 C19        -25.8530   -22.2010     1.8650 cd         1 TJ8       0.306200
     16 C20        -25.5970   -21.7860     0.5950 cc         1 TJ8      -0.248600
     17 N10        -24.3030   -22.1710     0.3370 na         1 TJ8      -0.135000
     18 N18        -24.7630   -22.8370     2.3840 nd         1 TJ8      -0.660000
     19 BR5        -20.0030   -20.0120    -1.6470 br         1 TJ8      -0.073100
     20 H1         -20.4970   -20.3760    -4.3270 h4         1 TJ8       0.015200
     21 H4         -21.9670   -20.9500     0.2510 ha         1 TJ8       0.171000
     22 H5         -23.8490   -22.0080    -4.1840 ha         1 TJ8       0.162000
     23 H6         -25.0900   -22.6270    -2.1530 ha         1 TJ8       0.156000
     24 H7         -22.4470   -24.2530    -0.4100 ha         1 TJ8       0.141000
     25 H8         -20.2500   -25.2930    -0.1130 ha         1 TJ8       0.134500
     26 H9         -19.0620   -25.1090     2.0510 ha         1 TJ8       0.133000
     27 H10        -20.1060   -23.8720     3.9240 ha         1 TJ8       0.134500
     28 H11        -22.3050   -22.8020     3.6240 ha         1 TJ8       0.141000
     29 H12        -26.7640   -22.0780     2.4290 h4         1 TJ8       0.042100
     30 H13        -26.1840   -21.2380    -0.1220 h4         1 TJ8       0.180000
     31 O1         -21.9590   -21.0900    -5.4940 o          1 TJ8      -0.507100
@<TRIPOS>BOND
     1     1     2 1   
     2     1    20 1   
     3     1    31 2   
     4     2     3 ar  
     5     2     5 ar  
     6     3     4 ar  
     7     3    19 1   
     8     4     7 ar  
     9     4    21 1   
    10     5     6 ar  
    11     5    22 1   
    12     6     7 ar  
    13     6    23 1   
    14     7    17 1   
    15     8     9 1   
    16     8    17 1   
    17     8    18 2   
    18     9    10 ar  
    19     9    14 ar  
    20    10    11 ar  
    21    10    24 1   
    22    11    12 ar  
    23    11    25 1   
    24    12    13 ar  
    25    12    26 1   
    26    13    14 ar  
    27    13    27 1   
    28    14    28 1   
    29    15    16 2   
    30    15    18 1   
    31    15    29 1   
    32    16    17 1   
    33    16    30 1   
@<TRIPOS>SUBSTRUCTURE
     1 TJ8         1 TEMP              0 ****  ****    0 ROOT
