@<TRIPOS>MOLECULE
TJ9
   26    27     1     0     0
SMALL
No Charge or Current Charge


@<TRIPOS>ATOM
      1 N1         -14.6240   -26.5420    -3.8130 nc         1 TJ9      -0.721000
      2 N3         -11.5010   -23.8630    -5.0630 nc         1 TJ9      -0.718000
      3 C4         -14.4380   -26.6070    -2.5070 cd         1 TJ9       0.546300
      4 C5         -15.2780   -27.6130    -0.4110 c          1 TJ9       0.601100
      5 C6         -16.3720   -28.5580     0.0670 c3         1 TJ9      -0.171100
      6 C7         -11.7520   -24.2720    -3.7820 cc         1 TJ9       0.422500
      7 C8         -10.9170   -23.7680    -2.8090 cd         1 TJ9      -0.276000
      8 C2         -13.6990   -25.7140    -4.4040 cc         1 TJ9       0.359300
      9 C3         -12.7990   -25.1430    -3.5260 cd         1 TJ9      -0.306500
     10 C9         -10.4760   -23.0600    -5.0550 cd         1 TJ9       0.694300
     11 N2         -15.2750   -27.3910    -1.7630 ns         1 TJ9      -0.474400
     12 N4         -10.1020   -22.5530    -6.2340 nv         1 TJ9      -1.038900
     13 O1         -14.4810   -27.1080     0.3630 o          1 TJ9      -0.572100
     14 S1         -13.0970   -25.6480    -1.8710 ss         1 TJ9       0.045600
     15 S2          -9.7170   -22.7000    -3.5160 ss         1 TJ9      -0.105400
     16 H1         -16.3480   -28.7150     1.1520 hc         1 TJ9       0.070033
     17 H2         -17.3450   -28.1760    -0.2640 hc         1 TJ9       0.070033
     18 H3         -16.2930   -29.5040    -0.4800 hc         1 TJ9       0.070033
     19 H4         -10.9280   -23.9510    -1.7430 h4         1 TJ9       0.165000
     20 H5         -14.6270   -26.1410    -6.3130 hc         1 TJ9       0.054367
     21 H6         -13.9770   -24.5030    -6.1640 hc         1 TJ9       0.054367
     22 H7         -12.8800   -25.8850    -6.3890 hc         1 TJ9       0.054367
     23 H8         -15.9960   -27.8790    -2.2720 hn         1 TJ9       0.338500
     24 H9         -10.7880   -22.6480    -6.9720 hn         1 TJ9       0.477000
     25 H10         -9.5640   -21.6950    -6.2210 hn         1 TJ9       0.477000
     26 C1         -13.8010   -25.5520    -5.8980 c3         1 TJ9      -0.119400
@<TRIPOS>BOND
     1     1     3 2   
     2     1     8 1   
     3     2     6 1   
     4     2    10 2   
     5     3    11 1   
     6     3    14 1   
     7     4     5 1   
     8     4    11 1   
     9     4    13 2   
    10     5    16 1   
    11     5    17 1   
    12     5    18 1   
    13     6     7 2   
    14     6     9 1   
    15     7    15 1   
    16     7    19 1   
    17     8     9 2   
    18     8    26 1   
    19     9    14 1   
    20    10    12 1   
    21    10    15 1   
    22    11    23 1   
    23    12    24 1   
    24    12    25 1   
    25    20    26 1   
    26    21    26 1   
    27    22    26 1   
@<TRIPOS>SUBSTRUCTURE
     1 TJ9         1 TEMP              0 ****  ****    0 ROOT
