@<TRIPOS>MOLECULE
TJ9
   26    27     1     0     0
SMALL
abcg2


@<TRIPOS>ATOM
      1 N1         -14.7910   -26.5030    -3.8560 nc         1 TJ9      -0.721000
      2 N3         -11.2740   -24.0740    -5.0270 nc         1 TJ9      -0.718000
      3 C4         -14.5540   -26.6680    -2.5850 cd         1 TJ9       0.546300
      4 C5         -15.1490   -27.7640    -0.4830 c          1 TJ9       0.601100
      5 C6         -16.1250   -28.7400     0.1130 c3         1 TJ9      -0.171100
      6 C7         -11.8980   -24.1400    -3.7900 cc         1 TJ9       0.422500
      7 C8         -11.4100   -23.2780    -2.8490 cd         1 TJ9      -0.276000
      8 C2         -13.9050   -25.6130    -4.4270 cc         1 TJ9       0.359300
      9 C3         -12.9750   -25.0940    -3.5630 cd         1 TJ9      -0.306500
     10 C9         -10.3290   -23.1760    -5.0350 cd         1 TJ9       0.694300
     11 N2         -15.3290   -27.5090    -1.8160 ns         1 TJ9      -0.474400
     12 N4          -9.5130   -22.9350    -6.0990 nv         1 TJ9      -1.038900
     13 O1         -14.2470   -27.2260     0.1480 o          1 TJ9      -0.572100
     14 S1         -13.2180   -25.7570    -1.9610 ss         1 TJ9       0.045600
     15 S2         -10.1150   -22.3360    -3.5090 ss         1 TJ9      -0.105400
     16 H1         -15.9470   -28.8200     1.1820 hc         1 TJ9       0.070033
     17 H2         -17.1510   -28.4130    -0.0680 hc         1 TJ9       0.070033
     18 H3         -16.0010   -29.7210    -0.3520 hc         1 TJ9       0.070033
     19 H4         -11.7450   -23.1260    -1.8370 h4         1 TJ9       0.165000
     20 H5         -15.1180   -25.0830    -6.0930 hc         1 TJ9       0.054367
     21 H6         -13.4550   -24.4570    -6.1750 hc         1 TJ9       0.054367
     22 H7         -13.7840   -26.1620    -6.4900 hc         1 TJ9       0.054367
     23 H8         -16.0810   -27.9720    -2.3090 hn         1 TJ9       0.338500
     24 H9          -9.8510   -23.2710    -6.9890 hn         1 TJ9       0.477000
     25 H10         -9.0400   -22.0460    -6.1380 hn         1 TJ9       0.477000
     26 C1         -14.0700   -25.3010    -5.8790 c3         1 TJ9      -0.119400
@<TRIPOS>BOND
     1     1     3 2   
     2     1     8 1   
     3     2     6 1   
     4     2    10 2   
     5     3    11 1   
     6     3    14 1   
     7     4     5 1   
     8     4    11 1   
     9     4    13 2   
    10     5    16 1   
    11     5    17 1   
    12     5    18 1   
    13     6     7 2   
    14     6     9 1   
    15     7    15 1   
    16     7    19 1   
    17     8     9 2   
    18     8    26 1   
    19     9    14 1   
    20    10    12 1   
    21    10    15 1   
    22    11    23 1   
    23    12    24 1   
    24    12    25 1   
    25    20    26 1   
    26    21    26 1   
    27    22    26 1   
@<TRIPOS>SUBSTRUCTURE
     1 TJ9         1 TEMP              0 ****  ****    0 ROOT
