@<TRIPOS>MOLECULE
TJA
   20    21     1     0     0
SMALL
abcg2


@<TRIPOS>ATOM
      1 N1          14.8350   -15.6940    -3.0360 nc         1 TJA      -0.353000
      2 N3          14.4960   -17.7870    -3.5810 na         1 TJA      -0.389000
      3 C4          13.6410   -19.4630    -2.0340 c6         1 TJA       0.137800
      4 C5          13.9920   -19.1560    -3.4920 c6         1 TJA       0.039600
      5 N           15.3580   -15.9120    -4.3060 nc         1 TJA      -0.362000
      6 C1          15.1400   -17.1690    -4.6160 cd         1 TJA       0.397800
      7 C2          14.3240   -16.8270    -2.6280 cd         1 TJA       0.350800
      8 C3          13.6590   -17.1490    -1.3240 c6         1 TJA       0.125500
      9 N2          12.8870   -18.3920    -1.3810 n7         1 TJA      -0.847400
     10 H1          13.0640   -20.3870    -2.0000 h1         1 TJA       0.070700
     11 H2          14.5590   -19.6220    -1.4630 h1         1 TJA       0.070700
     12 H3          13.1080   -19.2450    -4.1280 h1         1 TJA       0.060700
     13 H4          14.7550   -19.8420    -3.8610 h1         1 TJA       0.060700
     14 H5          16.0220   -17.1390    -6.5330 hc         1 TJA       0.058700
     15 H6          16.1750   -18.6930    -5.6920 hc         1 TJA       0.058700
     16 H7          14.6270   -18.2260    -6.3980 hc         1 TJA       0.058700
     17 H8          14.4270   -17.2480    -0.5500 h1         1 TJA       0.084200
     18 H9          13.0070   -16.3270    -1.0300 h1         1 TJA       0.084200
     19 H10         12.0190   -18.2310    -1.8830 hn         1 TJA       0.417000
     20 C           15.5120   -17.8460    -5.8820 c3         1 TJA      -0.123400
@<TRIPOS>BOND
     1     1     5 1   
     2     1     7 2   
     3     2     4 1   
     4     2     6 1   
     5     2     7 1   
     6     3     4 1   
     7     3     9 1   
     8     3    10 1   
     9     3    11 1   
    10     4    12 1   
    11     4    13 1   
    12     5     6 2   
    13     6    20 1   
    14     7     8 1   
    15     8     9 1   
    16     8    17 1   
    17     8    18 1   
    18     9    19 1   
    19    14    20 1   
    20    15    20 1   
    21    16    20 1   
@<TRIPOS>SUBSTRUCTURE
     1 TJA         1 TEMP              0 ****  ****    0 ROOT
