@<TRIPOS>MOLECULE
TJA
   20    21     1     0     0
SMALL
No Charge or Current Charge


@<TRIPOS>ATOM
      1 N1          14.8620   -15.6930    -3.0390 nc         1 TJA      -0.353000
      2 N3          14.5010   -17.7900    -3.5910 na         1 TJA      -0.389000
      3 C4          13.6150   -19.5070    -1.9970 c6         1 TJA       0.137800
      4 C5          13.9870   -19.1750    -3.4820 c6         1 TJA       0.039600
      5 N           15.3780   -15.9100    -4.3120 nc         1 TJA      -0.362000
      6 C1          15.1460   -17.1780    -4.6280 cd         1 TJA       0.397800
      7 C2          14.3300   -16.8380    -2.6290 cd         1 TJA       0.350800
      8 C3          13.6500   -17.1140    -1.2930 c6         1 TJA       0.125500
      9 N2          12.8580   -18.3980    -1.3280 n7         1 TJA      -0.847400
     10 H1          13.0250   -20.4360    -1.9720 h1         1 TJA       0.070700
     11 H2          14.5420   -19.7020    -1.4350 h1         1 TJA       0.070700
     12 H3          13.0930   -19.2700    -4.1140 h1         1 TJA       0.060700
     13 H4          14.7400   -19.8870    -3.8490 h1         1 TJA       0.060700
     14 H5          16.0040   -17.0900    -6.6060 hc         1 TJA       0.058700
     15 H6          16.2530   -18.6290    -5.7630 hc         1 TJA       0.058700
     16 H7          14.6610   -18.2340    -6.4360 hc         1 TJA       0.058700
     17 H8          14.4270   -17.1840    -0.5170 h1         1 TJA       0.084200
     18 H9          12.9960   -16.2710    -1.0210 h1         1 TJA       0.084200
     19 H10         12.0030   -18.2330    -1.8780 hn         1 TJA       0.417000
     20 C           15.5380   -17.8160    -5.9300 c3         1 TJA      -0.123400
@<TRIPOS>BOND
     1     1     5 1   
     2     1     7 2   
     3     2     4 1   
     4     2     6 1   
     5     2     7 1   
     6     3     4 1   
     7     3     9 1   
     8     3    10 1   
     9     3    11 1   
    10     4    12 1   
    11     4    13 1   
    12     5     6 2   
    13     6    20 1   
    14     7     8 1   
    15     8     9 1   
    16     8    17 1   
    17     8    18 1   
    18     9    19 1   
    19    14    20 1   
    20    15    20 1   
    21    16    20 1   
@<TRIPOS>SUBSTRUCTURE
     1 TJA         1 TEMP              0 ****  ****    0 ROOT
