@<TRIPOS>MOLECULE
TJB
   31    33     1     0     0
SMALL
No Charge or Current Charge


@<TRIPOS>ATOM
      1 C01        -21.2850   -20.9860    -4.2740 c          1 TJB       0.586500
      2 C02        -22.0640   -21.2790    -3.0180 ca         1 TJB      -0.196600
      3 C03        -23.2490   -22.0450    -3.0870 ca         1 TJB      -0.039000
      4 C04        -23.9840   -22.3280    -1.9240 ca         1 TJB      -0.130000
      5 C05        -23.5480   -21.8560    -0.6740 ca         1 TJB       0.038800
      6 C07        -23.7730   -22.5740     1.6850 cc         1 TJB       0.474000
      7 C08        -22.4170   -23.0940     1.9340 ca         1 TJB      -0.133500
      8 C09        -21.8410   -22.9710     3.2190 ca         1 TJB      -0.082500
      9 C10        -20.5640   -23.4950     3.4880 ca         1 TJB      -0.114500
     10 C11        -19.8540   -24.1700     2.4830 ca         1 TJB      -0.097000
     11 C12        -20.4280   -24.3330     1.2130 ca         1 TJB      -0.114500
     12 C13        -21.7050   -23.8100     0.9420 ca         1 TJB      -0.082500
     13 C15        -25.8410   -21.9690     1.9690 cd         1 TJB       0.239900
     14 C16        -25.5910   -21.7490     0.6370 cc         1 TJB      -0.216000
     15 C17        -22.3760   -21.0810    -0.6030 ca         1 TJB      -0.118000
     16 C18        -21.6350   -20.7970    -1.7610 ca         1 TJB       0.168000
     17 N06        -24.2880   -22.1440     0.4740 na         1 TJB      -0.083300
     18 N14        -24.7190   -22.4690     2.6130 nd         1 TJB      -0.658000
     19 Cl1        -20.1710   -19.8300    -1.5880 cl         1 TJB      -0.180000
     20 H1         -20.3610   -20.3790    -4.1690 h4         1 TJB       0.012200
     21 H4         -23.6050   -22.4260    -4.0440 ha         1 TJB       0.144000
     22 H5         -24.8930   -22.9220    -1.9950 ha         1 TJB       0.138000
     23 H6         -22.3790   -22.4540     4.0110 ha         1 TJB       0.123000
     24 H7         -20.1280   -23.3790     4.4770 ha         1 TJB       0.116500
     25 H8         -18.8670   -24.5760     2.6920 ha         1 TJB       0.115000
     26 H9         -19.8880   -24.8730     0.4390 ha         1 TJB       0.116500
     27 H10        -22.1380   -23.9790    -0.0400 ha         1 TJB       0.123000
     28 H11        -26.7620   -21.7800     2.5060 h4         1 TJB       0.043100
     29 H12        -26.2090   -21.3410    -0.1530 h4         1 TJB       0.162000
     30 H13        -22.0320   -20.6950     0.3530 ha         1 TJB       0.153000
     31 O1         -21.6310   -21.3880    -5.3810 o          1 TJB      -0.509100
@<TRIPOS>BOND
     1     1     2 1   
     2     1    20 1   
     3     1    31 2   
     4     2     3 ar  
     5     2    16 ar  
     6     3     4 ar  
     7     3    21 1   
     8     4     5 ar  
     9     4    22 1   
    10     5    15 ar  
    11     5    17 1   
    12     6     7 1   
    13     6    17 1   
    14     6    18 2   
    15     7     8 ar  
    16     7    12 ar  
    17     8     9 ar  
    18     8    23 1   
    19     9    10 ar  
    20     9    24 1   
    21    10    11 ar  
    22    10    25 1   
    23    11    12 ar  
    24    11    26 1   
    25    12    27 1   
    26    13    14 2   
    27    13    18 1   
    28    13    28 1   
    29    14    17 1   
    30    14    29 1   
    31    15    16 ar  
    32    15    30 1   
    33    16    19 1   
@<TRIPOS>SUBSTRUCTURE
     1 TJB         1 TEMP              0 ****  ****    0 ROOT
