@<TRIPOS>MOLECULE
TJB
   31    33     1     0     0
SMALL
bcc


@<TRIPOS>ATOM
      1 C01        -21.2600   -21.0050    -4.1960 c          1 TJB       0.586500
      2 C02        -22.0200   -21.2660    -2.9560 ca         1 TJB      -0.196600
      3 C03        -23.2360   -21.9450    -3.0360 ca         1 TJB      -0.057000
      4 C04        -23.9770   -22.2330    -1.9090 ca         1 TJB      -0.148000
      5 C05        -23.5070   -21.8240    -0.6670 ca         1 TJB       0.038800
      6 C07        -23.8070   -22.6140     1.6810 cc         1 TJB       0.474000
      7 C08        -22.4510   -23.1230     1.9070 ca         1 TJB      -0.133500
      8 C09        -21.8050   -22.8260     3.1070 ca         1 TJB      -0.100500
      9 C10        -20.5290   -23.3080     3.3530 ca         1 TJB      -0.132500
     10 C11        -19.8840   -24.0930     2.4050 ca         1 TJB      -0.115000
     11 C12        -20.5280   -24.4030     1.2140 ca         1 TJB      -0.132500
     12 C13        -21.8050   -23.9240     0.9650 ca         1 TJB      -0.100500
     13 C15        -25.8700   -22.1170     1.9510 cd         1 TJB       0.305200
     14 C16        -25.5840   -21.7950     0.6610 cc         1 TJB      -0.248600
     15 C17        -22.3150   -21.1230    -0.5550 ca         1 TJB      -0.136000
     16 C18        -21.5760   -20.8640    -1.6950 ca         1 TJB       0.076400
     17 N06        -24.2560   -22.1060     0.4920 na         1 TJB      -0.134000
     18 N14        -24.7650   -22.6250     2.5710 nd         1 TJB      -0.658000
     19 CL1        -20.0870   -20.0060    -1.4980 cl         1 TJB      -0.088400
     20 H1         -20.3030   -20.4760    -4.0770 h4         1 TJB       0.012200
     21 H4         -23.5940   -22.2640    -4.0060 ha         1 TJB       0.162000
     22 H5         -24.9040   -22.7850    -1.9880 ha         1 TJB       0.156000
     23 H6         -22.3020   -22.2070     3.8420 ha         1 TJB       0.141000
     24 H7         -20.0340   -23.0650     4.2840 ha         1 TJB       0.134500
     25 H8         -18.8860   -24.4660     2.5960 ha         1 TJB       0.133000
     26 H9         -20.0370   -25.0250     0.4760 ha         1 TJB       0.134500
     27 H10        -22.3010   -24.1940     0.0410 ha         1 TJB       0.141000
     28 H11        -26.8140   -22.0110     2.4640 h4         1 TJB       0.043100
     29 H12        -26.1730   -21.3540    -0.1260 h4         1 TJB       0.180000
     30 H13        -21.9670   -20.7790     0.4090 ha         1 TJB       0.171000
     31 O1         -21.6470   -21.3440    -5.2880 o          1 TJB      -0.509100
@<TRIPOS>BOND
     1     1     2 1   
     2     1    20 1   
     3     1    31 2   
     4     2     3 ar  
     5     2    16 ar  
     6     3     4 ar  
     7     3    21 1   
     8     4     5 ar  
     9     4    22 1   
    10     5    15 ar  
    11     5    17 1   
    12     6     7 1   
    13     6    17 1   
    14     6    18 2   
    15     7     8 ar  
    16     7    12 ar  
    17     8     9 ar  
    18     8    23 1   
    19     9    10 ar  
    20     9    24 1   
    21    10    11 ar  
    22    10    25 1   
    23    11    12 ar  
    24    11    26 1   
    25    12    27 1   
    26    13    14 2   
    27    13    18 1   
    28    13    28 1   
    29    14    17 1   
    30    14    29 1   
    31    15    16 ar  
    32    15    30 1   
    33    16    19 1   
@<TRIPOS>SUBSTRUCTURE
     1 TJB         1 TEMP              0 ****  ****    0 ROOT
