@<TRIPOS>MOLECULE
TJC
   70    73     1     0     0
SMALL
abcg2


@<TRIPOS>ATOM
      1 C10         -5.7150    12.0760   127.8560 ca         1 TJC      -0.018200
      2 C11         -6.0960    12.5200   125.4230 c3         1 TJC       0.130900
      3 O2          -7.1340    15.7410   130.0420 o          1 TJC      -0.717500
      4 C18         -7.2510    16.2150   128.8850 c          1 TJC       0.696000
      5 O3          -8.2860    16.2930   128.1890 o          1 TJC      -0.717500
      6 C17         -5.9310    16.7870   128.3190 c3         1 TJC       0.005600
      7 C16         -5.9940    16.2940   125.9770 ca         1 TJC       0.214100
      8 C19         -6.0190    14.9180   126.2040 ca         1 TJC      -0.159000
      9 C15         -5.9870    16.7430   124.6500 ca         1 TJC       0.066000
     10 CL1         -5.9580    18.4610   124.3220 cl         1 TJC      -0.226000
     11 C14         -6.0110    15.8470   123.5940 ca         1 TJC      -0.079000
     12 C13         -6.0470    14.4800   123.8400 ca         1 TJC      -0.172000
     13 C12         -6.0510    14.0120   125.1510 ca         1 TJC      -0.085300
     14 N1          -6.5400    12.1970   126.7630 na         1 TJC      -0.104700
     15 C2          -7.8640    12.2870   127.2030 cc         1 TJC      -0.041300
     16 C1          -8.9690    12.4820   126.2280 c3         1 TJC      -0.032900
     17 C3          -7.9000    12.1800   128.5710 cd         1 TJC      -0.093400
     18 C4          -9.0940    12.2150   129.4680 c3         1 TJC      -0.017900
     19 C5          -6.5390    12.0490   129.0120 ca         1 TJC      -0.088800
     20 C6          -5.9470    11.9430   130.2700 ca         1 TJC      -0.009000
     21 C9          -4.3250    12.0050   127.9450 ca         1 TJC      -0.145000
     22 C8          -3.7650    11.8940   129.2060 ca         1 TJC      -0.051000
     23 C7          -4.5590    11.8710   130.3700 ca         1 TJC      -0.188600
     24 C20         -3.8610    11.7610   131.6850 c          1 TJC       0.619700
     25 O4          -2.7380    11.2520   131.7890 o          1 TJC      -0.646100
     26 N2          -4.5130    12.2570   132.7570 ns         1 TJC      -0.508900
     27 C21         -3.9770    12.1950   134.1130 c3         1 TJC       0.157300
     28 C22         -4.7120    13.1580   135.0060 ca         1 TJC      -0.113300
     29 C23         -5.7630    12.7350   135.8110 ca         1 TJC      -0.090500
     30 C24         -6.4670    13.6370   136.6060 ca         1 TJC      -0.111500
     31 C25         -6.1430    14.9930   136.6240 ca         1 TJC      -0.058300
     32 C28         -6.8830    16.0130   137.4940 c3         1 TJC      -0.003700
     33 C30         -8.0570    15.3870   138.2550 c3         1 TJC      -0.082100
     34 C31         -5.9010    16.6080   138.5210 c3         1 TJC      -0.082100
     35 C29         -7.4340    17.1450   136.6060 c3         1 TJC      -0.082100
     36 C26         -5.0790    15.4090   135.8130 ca         1 TJC      -0.111500
     37 C27         -4.3790    14.5140   135.0190 ca         1 TJC      -0.090500
     38 H1          -6.7540    12.0370   124.7020 h1         1 TJC       0.054200
     39 H2          -5.1070    12.0830   125.2800 h1         1 TJC       0.054200
     40 H4          -5.1260    16.0630   128.4630 h1         1 TJC       0.042700
     41 H5          -5.6820    17.6840   128.8870 h1         1 TJC       0.042700
     42 H6          -6.0420    14.5510   127.2170 ha         1 TJC       0.157000
     43 H7          -6.0120    16.2240   122.5800 ha         1 TJC       0.109000
     44 H8          -6.0830    13.7850   123.0100 ha         1 TJC       0.097000
     45 H9          -8.9950    11.6800   125.4860 hc         1 TJC       0.048033
     46 H10         -9.9270    12.4990   126.7430 hc         1 TJC       0.048033
     47 H11         -8.8580    13.4250   125.6860 hc         1 TJC       0.048033
     48 H12         -9.1670    11.3050   130.0710 hc         1 TJC       0.039367
     49 H13         -9.0380    13.0570   130.1640 hc         1 TJC       0.039367
     50 H14        -10.0200    12.3130   128.9020 hc         1 TJC       0.039367
     51 H15         -6.5750    11.9020   131.1520 ha         1 TJC       0.112000
     52 H16         -3.6970    12.0460   127.0650 ha         1 TJC       0.110000
     53 H17         -2.6910    11.8360   129.3150 ha         1 TJC       0.121000
     54 H18         -5.3980    12.7200   132.6280 hn         1 TJC       0.333500
     55 H19         -4.0640    11.1770   134.5020 h1         1 TJC       0.049700
     56 H20         -2.9150    12.4410   134.0720 h1         1 TJC       0.049700
     57 H21         -6.0400    11.6860   135.8210 ha         1 TJC       0.115000
     58 H22         -7.2760    13.2620   137.2160 ha         1 TJC       0.109500
     59 H23         -8.5590    16.1580   138.8410 hc         1 TJC       0.034700
     60 H24         -8.7920    14.9510   137.5750 hc         1 TJC       0.034700
     61 H25         -7.7240    14.6080   138.9440 hc         1 TJC       0.034700
     62 H26         -6.4150    17.3400   139.1490 hc         1 TJC       0.034700
     63 H27         -5.4970    15.8260   139.1670 hc         1 TJC       0.034700
     64 H28         -5.0660    17.1110   138.0310 hc         1 TJC       0.034700
     65 H29         -7.9620    17.8770   137.2210 hc         1 TJC       0.034700
     66 H30         -6.6360    17.6660   136.0750 hc         1 TJC       0.034700
     67 H31         -8.1350    16.7510   135.8660 hc         1 TJC       0.034700
     68 H32         -4.7860    16.4510   135.8010 ha         1 TJC       0.109500
     69 H33         -3.5610    14.8690   134.4020 ha         1 TJC       0.115000
     70 O1          -5.9700    17.2220   126.9560 os         1 TJC      -0.320100
@<TRIPOS>BOND
     1     1    14 1   
     2     1    19 ar  
     3     1    21 ar  
     4     2    13 1   
     5     2    14 1   
     6     2    38 1   
     7     2    39 1   
     8     3     4 1   
     9     4     5 1   
    10     4     6 1   
    11     6    40 1   
    12     6    41 1   
    13     6    70 1   
    14     7     8 ar  
    15     7     9 ar  
    16     7    70 1   
    17     8    13 ar  
    18     8    42 1   
    19     9    10 1   
    20     9    11 ar  
    21    11    12 ar  
    22    11    43 1   
    23    12    13 ar  
    24    12    44 1   
    25    14    15 1   
    26    15    16 1   
    27    15    17 2   
    28    16    45 1   
    29    16    46 1   
    30    16    47 1   
    31    17    18 1   
    32    17    19 1   
    33    18    48 1   
    34    18    49 1   
    35    18    50 1   
    36    19    20 ar  
    37    20    23 ar  
    38    20    51 1   
    39    21    22 ar  
    40    21    52 1   
    41    22    23 ar  
    42    22    53 1   
    43    23    24 1   
    44    24    25 2   
    45    24    26 1   
    46    26    27 1   
    47    26    54 1   
    48    27    28 1   
    49    27    55 1   
    50    27    56 1   
    51    28    29 ar  
    52    28    37 ar  
    53    29    30 ar  
    54    29    57 1   
    55    30    31 ar  
    56    30    58 1   
    57    31    32 1   
    58    31    36 ar  
    59    32    33 1   
    60    32    34 1   
    61    32    35 1   
    62    33    59 1   
    63    33    60 1   
    64    33    61 1   
    65    34    62 1   
    66    34    63 1   
    67    34    64 1   
    68    35    65 1   
    69    35    66 1   
    70    35    67 1   
    71    36    37 ar  
    72    36    68 1   
    73    37    69 1   
@<TRIPOS>SUBSTRUCTURE
     1 TJC         1 TEMP              0 ****  ****    0 ROOT
