@<TRIPOS>MOLECULE
TJC
   70    73     1     0     0
SMALL
No Charge or Current Charge


@<TRIPOS>ATOM
      1 C10         -6.0960    12.5750   128.1240 ca         1 TJC      -0.018200
      2 C11         -6.8320    12.3750   125.7400 c3         1 TJC       0.130900
      3 O2          -8.9150    17.8940   126.0770 o          1 TJC      -0.717500
      4 C18         -8.0370    17.5990   125.2780 c          1 TJC       0.696000
      5 O3          -8.2740    17.2440   124.1310 o          1 TJC      -0.717500
      6 C17         -6.5600    17.6910   125.7700 c3         1 TJC       0.005600
      7 C16         -5.4680    15.7950   124.5650 ca         1 TJC       0.214100
      8 C19         -6.2010    14.8170   125.2750 ca         1 TJC      -0.159000
      9 C15         -4.5690    15.3850   123.5560 ca         1 TJC       0.066000
     10 Cl1         -3.6230    16.5680   122.6460 cl         1 TJC      -0.226000
     11 C14         -4.4160    14.0220   123.2570 ca         1 TJC      -0.079000
     12 C13         -5.1520    13.0570   123.9650 ca         1 TJC      -0.172000
     13 C12         -6.0440    13.4450   124.9810 ca         1 TJC      -0.085300
     14 N1          -7.0850    12.6950   127.1590 na         1 TJC      -0.104700
     15 C2          -8.2740    13.1930   127.7330 cc         1 TJC      -0.041300
     16 C1          -9.5480    13.4800   126.9790 c3         1 TJC      -0.032900
     17 C3          -7.9810    13.3510   129.0850 cd         1 TJC      -0.093400
     18 C4          -8.9360    13.8580   130.1370 c3         1 TJC      -0.017900
     19 C5          -6.6060    12.9670   129.3280 ca         1 TJC      -0.088800
     20 C6          -5.8400    12.9630   130.5030 ca         1 TJC      -0.009000
     21 C9          -4.7670    12.1500   128.0010 ca         1 TJC      -0.145000
     22 C8          -3.9650    12.1310   129.1620 ca         1 TJC      -0.051000
     23 C7          -4.4870    12.5340   130.4240 ca         1 TJC      -0.188600
     24 C20         -3.5880    12.4980   131.6410 c          1 TJC       0.619700
     25 O4          -2.4220    12.1330   131.5830 o          1 TJC      -0.646100
     26 N2          -4.1450    12.8980   132.8330 ns         1 TJC      -0.508900
     27 C21         -3.4350    12.9300   134.1060 c3         1 TJC       0.157300
     28 C22         -4.3460    13.4190   135.2210 ca         1 TJC      -0.113300
     29 C23         -5.1150    12.5070   135.9620 ca         1 TJC      -0.090500
     30 C24         -5.9650    12.9570   136.9870 ca         1 TJC      -0.111500
     31 C25         -6.0680    14.3370   137.2970 ca         1 TJC      -0.058300
     32 C28         -6.9940    14.8800   138.4190 c3         1 TJC      -0.003700
     33 C30         -7.7800    13.7590   139.1570 c3         1 TJC      -0.082100
     34 C31         -6.1360    15.6320   139.4730 c3         1 TJC      -0.082100
     35 C29         -8.0270    15.8610   137.8010 c3         1 TJC      -0.082100
     36 C26         -5.2870    15.2410   136.5390 ca         1 TJC      -0.111500
     37 C27         -4.4380    14.7890   135.5140 ca         1 TJC      -0.090500
     38 H1          -7.7940    12.2220   125.2360 h1         1 TJC       0.054200
     39 H2          -6.2930    11.4210   125.6940 h1         1 TJC       0.054200
     40 H4          -6.4820    17.1960   126.7460 h1         1 TJC       0.042700
     41 H5          -6.3520    18.7550   125.9320 h1         1 TJC       0.042700
     42 H6          -6.8920    15.1120   126.0560 ha         1 TJC       0.157000
     43 H7          -3.7250    13.7120   122.4770 ha         1 TJC       0.109000
     44 H8          -5.0230    12.0040   123.7230 ha         1 TJC       0.097000
     45 H9         -10.0890    12.5510   126.7640 hc         1 TJC       0.048033
     46 H10        -10.2130    14.1340   127.5530 hc         1 TJC       0.048033
     47 H11         -9.3380    13.9790   126.0260 hc         1 TJC       0.048033
     48 H12         -8.6640    13.4960   131.1350 hc         1 TJC       0.039367
     49 H13         -8.9390    14.9540   130.1640 hc         1 TJC       0.039367
     50 H14         -9.9600    13.5220   129.9380 hc         1 TJC       0.039367
     51 H15         -6.2910    13.2880   131.4350 ha         1 TJC       0.112000
     52 H16         -4.3550    11.8460   127.0420 ha         1 TJC       0.110000
     53 H17         -2.9310    11.8030   129.0770 ha         1 TJC       0.121000
     54 H18         -5.1120    13.1880   132.8200 hn         1 TJC       0.333500
     55 H19         -3.0690    11.9210   134.3380 h1         1 TJC       0.049700
     56 H20         -2.5660    13.5950   134.0150 h1         1 TJC       0.049700
     57 H21         -5.0580    11.4430   135.7430 ha         1 TJC       0.115000
     58 H22         -6.5370    12.2100   137.5280 ha         1 TJC       0.109500
     59 H23         -8.4210    14.1820   139.9410 hc         1 TJC       0.034700
     60 H24         -8.4290    13.2090   138.4640 hc         1 TJC       0.034700
     61 H25         -7.0980    13.0480   139.6380 hc         1 TJC       0.034700
     62 H26         -6.7590    16.0000   140.2970 hc         1 TJC       0.034700
     63 H27         -5.3730    14.9680   139.8950 hc         1 TJC       0.034700
     64 H28         -5.6250    16.4980   139.0360 hc         1 TJC       0.034700
     65 H29         -8.7180    16.2360   138.5660 hc         1 TJC       0.034700
     66 H30         -7.5390    16.7290   137.3440 hc         1 TJC       0.034700
     67 H31         -8.6200    15.3590   137.0270 hc         1 TJC       0.034700
     68 H32         -5.3330    16.3080   136.7370 ha         1 TJC       0.109500
     69 H33         -3.8520    15.5090   134.9460 ha         1 TJC       0.115000
     70 O1          -5.5870    17.1510   124.8370 os         1 TJC      -0.320100
@<TRIPOS>BOND
     1     1    14 1   
     2     1    19 ar  
     3     1    21 ar  
     4     2    13 1   
     5     2    14 1   
     6     2    38 1   
     7     2    39 1   
     8     3     4 1   
     9     4     5 1   
    10     4     6 1   
    11     6    40 1   
    12     6    41 1   
    13     6    70 1   
    14     7     8 ar  
    15     7     9 ar  
    16     7    70 1   
    17     8    13 ar  
    18     8    42 1   
    19     9    10 1   
    20     9    11 ar  
    21    11    12 ar  
    22    11    43 1   
    23    12    13 ar  
    24    12    44 1   
    25    14    15 1   
    26    15    16 1   
    27    15    17 2   
    28    16    45 1   
    29    16    46 1   
    30    16    47 1   
    31    17    18 1   
    32    17    19 1   
    33    18    48 1   
    34    18    49 1   
    35    18    50 1   
    36    19    20 ar  
    37    20    23 ar  
    38    20    51 1   
    39    21    22 ar  
    40    21    52 1   
    41    22    23 ar  
    42    22    53 1   
    43    23    24 1   
    44    24    25 2   
    45    24    26 1   
    46    26    27 1   
    47    26    54 1   
    48    27    28 1   
    49    27    55 1   
    50    27    56 1   
    51    28    29 ar  
    52    28    37 ar  
    53    29    30 ar  
    54    29    57 1   
    55    30    31 ar  
    56    30    58 1   
    57    31    32 1   
    58    31    36 ar  
    59    32    33 1   
    60    32    34 1   
    61    32    35 1   
    62    33    59 1   
    63    33    60 1   
    64    33    61 1   
    65    34    62 1   
    66    34    63 1   
    67    34    64 1   
    68    35    65 1   
    69    35    66 1   
    70    35    67 1   
    71    36    37 ar  
    72    36    68 1   
    73    37    69 1   
@<TRIPOS>SUBSTRUCTURE
     1 TJC         1 TEMP              0 ****  ****    0 ROOT
