@<TRIPOS>MOLECULE
TJE
   63    64     1     0     0
SMALL
bcc


@<TRIPOS>ATOM
      1 C9           4.5420     2.8300     0.0280 c          1 TJE       0.670100
      2 O2           3.6690     2.8630     0.8820 o          1 TJE      -0.560100
      3 C10          5.6760     3.8290    -0.0030 c3         1 TJE      -0.183100
      4 N1           4.6140     1.8900    -0.9340 ns         1 TJE      -0.560900
      5 C8           3.6670     0.8320    -1.1590 c3         1 TJE       0.040700
      6 C11          2.3450     1.3620    -1.7310 c          1 TJE       0.659100
      7 O3           2.0640     2.5470    -1.7470 o          1 TJE      -0.603100
      8 C7           3.4140    -0.0630     0.0740 c3         1 TJE      -0.059100
      9 C4           4.6900    -0.6150     0.6410 ca         1 TJE      -0.068300
     10 C3           5.2970    -0.0580     1.7640 ca         1 TJE      -0.088500
     11 C5           5.3180    -1.7040     0.0440 ca         1 TJE      -0.088500
     12 C2           6.4830    -0.5630     2.2760 ca         1 TJE      -0.201500
     13 C6           6.5060    -2.2220     0.5380 ca         1 TJE      -0.201500
     14 C1           7.0970    -1.6510     1.6620 ca         1 TJE       0.104100
     15 O1           8.2500    -2.1120     2.1930 oh         1 TJE      -0.514100
     16 N2           1.5620     0.3920    -2.2410 ns         1 TJE      -0.527900
     17 C12          0.1190     0.5050    -2.3820 c3         1 TJE      -0.089500
     18 C13         -0.3530    -0.2220    -3.6300 c3         1 TJE      -0.063100
     19 P1          -0.5600    -0.1920    -0.7870 p5         1 TJE       1.056400
     20 O4          -0.1380     0.7440     0.3270 o          1 TJE      -0.807000
     21 C14         -2.3780    -0.0810    -1.0100 c3         1 TJE      -0.242600
     22 C15         -3.1590    -0.3840     0.2700 c3         1 TJE      -0.157700
     23 C16         -4.6360    -0.0320     0.0820 c3         1 TJE      -0.036400
     24 C17         -5.4810    -0.2500     1.3390 c3         1 TJE      -0.047100
     25 C18         -6.9050     0.1830     1.1350 ca         1 TJE      -0.031300
     26 C19         -7.8530    -0.7010     0.6220 ca         1 TJE      -0.132500
     27 C20         -9.1600    -0.2940     0.3900 ca         1 TJE      -0.142500
     28 C21         -9.5430     1.0120     0.6680 ca         1 TJE      -0.168000
     29 C22         -8.6090     1.9040     1.1790 ca         1 TJE      -0.142500
     30 C23         -7.3030     1.4910     1.4080 ca         1 TJE      -0.132500
     31 C24         -3.0150    -1.8620     0.6820 c          1 TJE       0.934600
     32 O5          -2.5530    -2.1060     1.8150 o          1 TJE      -0.851300
     33 O6          -3.4160    -2.7080    -0.1460 o          1 TJE      -0.851300
     34 O7          -0.1050    -1.6400    -0.7410 o          1 TJE      -0.807000
     35 H10          5.4710     4.6510     0.6770 hc         1 TJE       0.044367
     36 H11          6.6070     3.3500     0.3060 hc         1 TJE       0.044367
     37 H12          5.8330     4.2310    -1.0040 hc         1 TJE       0.044367
     38 H9           5.3650     1.9650    -1.5990 hn         1 TJE       0.290500
     39 H8           4.1220     0.1990    -1.9270 h1         1 TJE       0.031700
     40 H6           2.8550     0.4930     0.8220 hc         1 TJE       0.114200
     41 H7           2.7650    -0.8880    -0.2300 hc         1 TJE       0.114200
     42 H3           4.8350     0.7900     2.2550 ha         1 TJE       0.143500
     43 H4           4.8700    -2.1710    -0.8270 ha         1 TJE       0.143500
     44 H2           6.9340    -0.1160     3.1530 ha         1 TJE       0.121500
     45 H5           6.9680    -3.0720     0.0490 ha         1 TJE       0.121500
     46 H1           8.5760    -2.8620     1.6830 ho         1 TJE       0.410000
     47 H13          1.8810    -0.5580    -2.1190 hn         1 TJE       0.301500
     48 H14         -0.1320     1.5640    -2.4580 h1         1 TJE       0.069700
     49 H15          0.1320     0.1730    -4.5240 hc         1 TJE       0.019033
     50 H16         -0.1380    -1.2900    -3.5680 hc         1 TJE       0.019033
     51 H17         -1.4300    -0.1120    -3.7590 hc         1 TJE       0.019033
     52 H19         -2.6090     0.9360    -1.3500 hc         1 TJE       0.024200
     53 H20         -2.7040    -0.7570    -1.8040 hc         1 TJE       0.024200
     54 H21         -2.7610     0.2450     1.0730 hc         1 TJE       0.048700
     55 H22         -4.7190     1.0170    -0.2220 hc         1 TJE       0.013700
     56 H23         -5.0500    -0.6240    -0.7390 hc         1 TJE       0.013700
     57 H24         -5.4580    -1.3060     1.6190 hc         1 TJE       0.062700
     58 H25         -5.0390     0.3060     2.1710 hc         1 TJE       0.062700
     59 H26         -7.5610    -1.7220     0.4020 ha         1 TJE       0.137500
     60 H27         -9.8810    -0.9990    -0.0040 ha         1 TJE       0.107000
     61 H28        -10.5630     1.3300     0.4900 ha         1 TJE       0.101000
     62 H29         -8.8970     2.9240     1.4020 ha         1 TJE       0.107000
     63 H30         -6.5810     2.1940     1.8090 ha         1 TJE       0.137500
@<TRIPOS>BOND
     1     1     2 2   
     2     1     3 1   
     3     1     4 1   
     4     3    35 1   
     5     3    36 1   
     6     3    37 1   
     7     4     5 1   
     8     4    38 1   
     9     5     6 1   
    10     5     8 1   
    11     5    39 1   
    12     6     7 2   
    13     6    16 1   
    14     8     9 1   
    15     8    40 1   
    16     8    41 1   
    17     9    10 ar  
    18     9    11 ar  
    19    10    12 ar  
    20    10    42 1   
    21    11    13 ar  
    22    11    43 1   
    23    12    14 ar  
    24    12    44 1   
    25    13    14 ar  
    26    13    45 1   
    27    14    15 1   
    28    15    46 1   
    29    16    17 1   
    30    16    47 1   
    31    17    18 1   
    32    17    19 1   
    33    17    48 1   
    34    18    49 1   
    35    18    50 1   
    36    18    51 1   
    37    19    20 1   
    38    19    21 1   
    39    19    34 1   
    40    21    22 1   
    41    21    52 1   
    42    21    53 1   
    43    22    23 1   
    44    22    31 1   
    45    22    54 1   
    46    23    24 1   
    47    23    55 1   
    48    23    56 1   
    49    24    25 1   
    50    24    57 1   
    51    24    58 1   
    52    25    26 ar  
    53    25    30 ar  
    54    26    27 ar  
    55    26    59 1   
    56    27    28 ar  
    57    27    60 1   
    58    28    29 ar  
    59    28    61 1   
    60    29    30 ar  
    61    29    62 1   
    62    30    63 1   
    63    31    32 1   
    64    31    33 1   
@<TRIPOS>SUBSTRUCTURE
     1 TJE         1 TEMP              0 ****  ****    0 ROOT
