@<TRIPOS>MOLECULE
TJE
   63    64     1     0     0
SMALL
No Charge or Current Charge


@<TRIPOS>ATOM
      1 C9           4.9870     2.7820    -0.2540 c          1 TJE       0.603100
      2 O2           4.3070     2.9240     0.7520 o          1 TJE      -0.560100
      3 C10          6.0690     3.7790    -0.6520 c3         1 TJE      -0.183100
      4 N1           4.8480     1.7170    -1.1210 ns         1 TJE      -0.493900
      5 C8           3.9030     0.5820    -0.9640 c3         1 TJE       0.040700
      6 C11          2.4240     1.0060    -1.2600 c          1 TJE       0.592100
      7 O3           2.0930     2.1520    -1.5490 o          1 TJE      -0.603100
      8 C7           4.0720    -0.1640     0.3930 c3         1 TJE      -0.059100
      9 C4           5.5290    -0.4820     0.7230 ca         1 TJE      -0.068300
     10 C3           6.1680     0.1450     1.8120 ca         1 TJE      -0.070500
     11 C5           6.2490    -1.4040    -0.0620 ca         1 TJE      -0.070500
     12 C2           7.5120    -0.1450     2.1070 ca         1 TJE      -0.183500
     13 C6           7.5930    -1.6930     0.2360 ca         1 TJE      -0.183500
     14 C1           8.2220    -1.0620     1.3200 ca         1 TJE       0.104100
     15 O1           9.5230    -1.3390     1.6120 oh         1 TJE      -0.553100
     16 N2           1.4940    -0.0200    -1.1810 ns         1 TJE      -0.460900
     17 C12          0.0260     0.1180    -1.4220 c3         1 TJE      -0.247300
     18 C13         -0.2820     0.0360    -2.9350 c3         1 TJE      -0.063100
     19 P1          -1.0530    -1.0120    -0.3760 p5         1 TJE       1.372000
     20 O4          -0.6830    -0.8590     1.0670 o          1 TJE      -0.807000
     21 C14         -2.7710    -0.3690    -0.6600 c3         1 TJE      -0.400400
     22 C15         -3.8650    -0.8400     0.3590 c3         1 TJE      -0.157700
     23 C16         -5.2300    -0.1570     0.0720 c3         1 TJE      -0.036400
     24 C17         -6.3290    -0.4690     1.1140 c3         1 TJE      -0.047100
     25 C18         -7.6220     0.2820     0.8270 ca         1 TJE      -0.031300
     26 C19         -8.5810    -0.2640    -0.0480 ca         1 TJE      -0.114500
     27 C20         -9.7740     0.4300    -0.3160 ca         1 TJE      -0.124500
     28 C21        -10.0140     1.6750     0.2890 ca         1 TJE      -0.150000
     29 C22         -9.0610     2.2260     1.1610 ca         1 TJE      -0.124500
     30 C23         -7.8680     1.5320     1.4290 ca         1 TJE      -0.114500
     31 C24         -3.9970    -2.3920     0.4420 c          1 TJE       0.724000
     32 O5          -3.7520    -2.9340     1.5100 o          1 TJE      -0.746000
     33 O6          -4.3810    -3.0040    -0.5440 o          1 TJE      -0.746000
     34 O7          -0.9280    -2.4240    -0.8570 o          1 TJE      -0.807000
     35 H10          6.1550     4.6150     0.0500 hc         1 TJE       0.044367
     36 H11          7.0210     3.2460    -0.7630 hc         1 TJE       0.044367
     37 H12          5.8780     4.1260    -1.6740 hc         1 TJE       0.044367
     38 H9           5.4640     1.7150    -1.9250 hn         1 TJE       0.290500
     39 H8           4.1620    -0.1370    -1.7520 h1         1 TJE       0.031700
     40 H6           3.6180     0.4330     1.1920 hc         1 TJE       0.114200
     41 H7           3.5000    -1.1000     0.3700 hc         1 TJE       0.114200
     42 H3           5.6270     0.8610     2.4280 ha         1 TJE       0.125500
     43 H4           5.7680    -1.8960    -0.9050 ha         1 TJE       0.125500
     44 H2           8.0000     0.3440     2.9470 ha         1 TJE       0.103500
     45 H5           8.1370    -2.4060    -0.3790 ha         1 TJE       0.103500
     46 H1           9.8520    -1.9960     0.9620 ho         1 TJE       0.449000
     47 H13          1.8580    -0.9400    -0.9540 hn         1 TJE       0.301500
     48 H14         -0.2770     1.1120    -1.0710 h1         1 TJE       0.069700
     49 H15          0.3110     0.7710    -3.4920 hc         1 TJE       0.019033
     50 H16         -0.0470    -0.9610    -3.3270 hc         1 TJE       0.019033
     51 H17         -1.3400     0.2430    -3.1330 hc         1 TJE       0.019033
     52 H19         -2.7000     0.7240    -0.6450 hc         1 TJE       0.024200
     53 H20         -3.0620    -0.6620    -1.6740 hc         1 TJE       0.024200
     54 H21         -3.5400    -0.4940     1.3490 hc         1 TJE       0.048700
     55 H22         -5.0840     0.9300     0.0390 hc         1 TJE       0.013700
     56 H23         -5.5850    -0.4540    -0.9230 hc         1 TJE       0.013700
     57 H24         -6.5250    -1.5480     1.1290 hc         1 TJE       0.062700
     58 H25         -5.9590    -0.2130     2.1140 hc         1 TJE       0.062700
     59 H26         -8.4010    -1.2260    -0.5220 ha         1 TJE       0.119500
     60 H27        -10.5110     0.0030    -0.9930 ha         1 TJE       0.089000
     61 H28        -10.9370     2.2120     0.0810 ha         1 TJE       0.083000
     62 H29         -9.2450     3.1910     1.6280 ha         1 TJE       0.089000
     63 H30         -7.1330     1.9670     2.1030 ha         1 TJE       0.119500
@<TRIPOS>BOND
     1     1     2 2   
     2     1     3 1   
     3     1     4 1   
     4     3    35 1   
     5     3    36 1   
     6     3    37 1   
     7     4     5 1   
     8     4    38 1   
     9     5     6 1   
    10     5     8 1   
    11     5    39 1   
    12     6     7 2   
    13     6    16 1   
    14     8     9 1   
    15     8    40 1   
    16     8    41 1   
    17     9    10 ar  
    18     9    11 ar  
    19    10    12 ar  
    20    10    42 1   
    21    11    13 ar  
    22    11    43 1   
    23    12    14 ar  
    24    12    44 1   
    25    13    14 ar  
    26    13    45 1   
    27    14    15 1   
    28    15    46 1   
    29    16    17 1   
    30    16    47 1   
    31    17    18 1   
    32    17    19 1   
    33    17    48 1   
    34    18    49 1   
    35    18    50 1   
    36    18    51 1   
    37    19    20 1   
    38    19    21 1   
    39    19    34 1   
    40    21    22 1   
    41    21    52 1   
    42    21    53 1   
    43    22    23 1   
    44    22    31 1   
    45    22    54 1   
    46    23    24 1   
    47    23    55 1   
    48    23    56 1   
    49    24    25 1   
    50    24    57 1   
    51    24    58 1   
    52    25    26 ar  
    53    25    30 ar  
    54    26    27 ar  
    55    26    59 1   
    56    27    28 ar  
    57    27    60 1   
    58    28    29 ar  
    59    28    61 1   
    60    29    30 ar  
    61    29    62 1   
    62    30    63 1   
    63    31    32 1   
    64    31    33 1   
@<TRIPOS>SUBSTRUCTURE
     1 TJE         1 TEMP              0 ****  ****    0 ROOT
