@<TRIPOS>MOLECULE
TJG
   53    56     1     0     0
SMALL
No Charge or Current Charge


@<TRIPOS>ATOM
      1 C17          9.7490     8.7130     4.9900 ca         1 TJG       0.144900
      2 C21         10.1070    10.6360     9.2440 ca         1 TJG       0.170300
      3 C22         11.0230     9.6670     9.6770 ca         1 TJG      -0.163000
      4 C24         10.8550     8.6620     7.4910 ca         1 TJG      -0.154000
      5 C26          9.6570    11.7340    10.1640 cx         1 TJG      -0.222000
      6 C28          9.7970    13.1950     9.7930 cx         1 TJG      -0.100400
      7 C01         14.9370    -0.1870     3.0950 c3         1 TJG      -0.101100
      8 C02         13.6290     0.4080     2.5150 c3         1 TJG       0.189000
      9 C03         13.8150     0.6570     0.9960 c3         1 TJG      -0.101100
     10 O04         12.6430    -0.6200     2.6410 oh         1 TJG      -0.659000
     11 C05         13.1510     1.6870     3.3170 c6         1 TJG      -0.086700
     12 C07         14.1830     2.8590     3.3140 c6         1 TJG      -0.066400
     13 C08         13.6990     4.0480     4.1810 c6         1 TJG      -0.090900
     14 C09         12.3210     4.5740     3.7100 c6         1 TJG       0.112700
     15 C11         11.2910     3.4170     3.7350 c6         1 TJG      -0.090900
     16 C12         11.7570     2.2270     2.8610 c6         1 TJG      -0.066400
     17 N13         11.8820     5.6770     4.5720 ns         1 TJG      -0.500900
     18 O15         10.4800     6.6970     3.1090 o          1 TJG      -0.598100
     19 C16         10.6590     7.6810     5.2810 ca         1 TJG      -0.210600
     20 N18          9.3980     9.6700     5.8730 nb         1 TJG      -0.118000
     21 C19          9.9260     9.6730     7.1160 ca         1 TJG       0.080000
     22 N20          9.5760    10.6320     8.0040 nb         1 TJG      -0.136000
     23 C23         11.4080     8.6590     8.7840 ca         1 TJG      -0.047000
     24 C25         11.2240     7.6620     6.5730 ca         1 TJG      -0.022000
     25 C27         10.6470    12.6140    10.8970 cx         1 TJG      -0.100400
     26 H1           9.2750     8.7860     4.0120 h4         1 TJG       0.047100
     27 H2          11.4260     9.6960    10.6860 ha         1 TJG       0.128000
     28 H3           8.7590    11.4570    10.7110 hc         1 TJG       0.084700
     29 H4          10.2890    13.4430     8.8550 hc         1 TJG       0.081200
     30 H5           8.9920    13.8700    10.0750 hc         1 TJG       0.081200
     31 H6          14.8580    -0.3360     4.1790 hc         1 TJG       0.042033
     32 H7          15.1630    -1.1580     2.6360 hc         1 TJG       0.042033
     33 H8          15.7930     0.4700     2.9030 hc         1 TJG       0.042033
     34 H9          12.8830     0.9870     0.5250 hc         1 TJG       0.042033
     35 H10         14.5830     1.4160     0.8090 hc         1 TJG       0.042033
     36 H11         14.1300    -0.2630     0.4890 hc         1 TJG       0.042033
     37 H12         12.4950    -0.7540     3.6010 ho         1 TJG       0.438000
     38 H13         13.0430     1.3550     4.3600 hc         1 TJG       0.037700
     39 H14         15.1540     2.5230     3.6990 hc         1 TJG       0.049450
     40 H15         14.3590     3.2120     2.2880 hc         1 TJG       0.049450
     41 H16         13.6420     3.7360     5.2340 hc         1 TJG       0.045700
     42 H17         14.4390     4.8590     4.1370 hc         1 TJG       0.045700
     43 H18         12.4180     4.9500     2.6790 h1         1 TJG       0.076700
     44 H19         10.3180     3.7770     3.3740 hc         1 TJG       0.045700
     45 H20         11.1330     3.0780     4.7680 hc         1 TJG       0.045700
     46 H21         11.7970     2.5530     1.8120 hc         1 TJG       0.049450
     47 H22         10.9990     1.4330     2.9100 hc         1 TJG       0.049450
     48 H23         12.2530     5.7190     5.5110 hn         1 TJG       0.311500
     49 H24         12.1180     7.8940     9.0920 ha         1 TJG       0.120000
     50 H25         11.9340     6.8960     6.8740 ha         1 TJG       0.115000
     51 H26         11.7070    12.4740    10.6950 hc         1 TJG       0.081200
     52 H27         10.4140    12.8980    11.9210 hc         1 TJG       0.081200
     53 C14         10.9830     6.6600     4.2230 c          1 TJG       0.619700
@<TRIPOS>BOND
     1     1    19 ar  
     2     1    20 ar  
     3     1    26 1   
     4     2     3 ar  
     5     2     5 1   
     6     2    22 ar  
     7     3    23 ar  
     8     3    27 1   
     9     4    21 ar  
    10     4    23 ar  
    11     4    24 ar  
    12     5     6 1   
    13     5    25 1   
    14     5    28 1   
    15     6    25 1   
    16     6    29 1   
    17     6    30 1   
    18     7     8 1   
    19     7    31 1   
    20     7    32 1   
    21     7    33 1   
    22     8     9 1   
    23     8    10 1   
    24     8    11 1   
    25     9    34 1   
    26     9    35 1   
    27     9    36 1   
    28    10    37 1   
    29    11    12 1   
    30    11    16 1   
    31    11    38 1   
    32    12    13 1   
    33    12    39 1   
    34    12    40 1   
    35    13    14 1   
    36    13    41 1   
    37    13    42 1   
    38    14    15 1   
    39    14    17 1   
    40    14    43 1   
    41    15    16 1   
    42    15    44 1   
    43    15    45 1   
    44    16    46 1   
    45    16    47 1   
    46    17    48 1   
    47    17    53 1   
    48    18    53 2   
    49    19    24 ar  
    50    19    53 1   
    51    20    21 ar  
    52    21    22 ar  
    53    23    49 1   
    54    24    50 1   
    55    25    51 1   
    56    25    52 1   
@<TRIPOS>SUBSTRUCTURE
     1 TJG         1 TEMP              0 ****  ****    0 ROOT
