@<TRIPOS>MOLECULE
TJG
   53    56     1     0     0
SMALL
bcc


@<TRIPOS>ATOM
      1 C17         10.6650     8.9760     5.1030 ca         1 TJG       0.473200
      2 C21         10.3540    10.6090     9.3620 ca         1 TJG       0.498600
      3 C22         10.7610     9.3840     9.9540 ca         1 TJG      -0.246300
      4 C24         10.9530     8.4720     7.7530 ca         1 TJG      -0.219300
      5 C26         10.0250    11.7550    10.2290 cx         1 TJG      -0.222000
      6 C28          8.9160    12.6940     9.8220 cx         1 TJG      -0.100400
      7 C01         14.7160    -0.1980     2.9570 c3         1 TJG      -0.101100
      8 C02         13.4480     0.4760     2.4300 c3         1 TJG       0.165800
      9 C03         13.6230     0.8050     0.9520 c3         1 TJG      -0.101100
     10 O04         12.3740    -0.4580     2.4880 oh         1 TJG      -0.596800
     11 C05         13.0980     1.7190     3.2840 c6         1 TJG      -0.086700
     12 C07         14.1730     2.8090     3.2590 c6         1 TJG      -0.066400
     13 C08         13.8270     3.9760     4.1790 c6         1 TJG      -0.090900
     14 C09         12.4680     4.5700     3.8310 c6         1 TJG       0.112700
     15 C11         11.3930     3.4880     3.8690 c6         1 TJG      -0.090900
     16 C12         11.7420     2.3360     2.9330 c6         1 TJG      -0.066400
     17 N13         12.1720     5.6700     4.7320 ns         1 TJG      -0.567900
     18 O15         10.7910     6.7830     3.3350 o          1 TJG      -0.598100
     19 C16         11.1000     7.6870     5.4940 ca         1 TJG      -0.275900
     20 N18         10.4050     9.9530     5.9280 nb         1 TJG      -0.644000
     21 C19         10.5390     9.7300     7.2530 ca         1 TJG       0.671300
     22 N20         10.2520    10.7630     8.0630 nb         1 TJG      -0.662000
     23 C23         11.0570     8.3230     9.1530 ca         1 TJG      -0.065000
     24 C25         11.2340     7.4440     6.8380 ca         1 TJG      -0.040000
     25 C27         10.3250    13.1560     9.7570 cx         1 TJG      -0.100400
     26 H1          10.5410     9.1900     4.0470 h4         1 TJG       0.047100
     27 H2          10.8310     9.3060    11.0310 ha         1 TJG       0.146000
     28 H3          10.1360    11.5680    11.2900 hc         1 TJG       0.084700
     29 H4           8.4120    12.4720     8.8910 hc         1 TJG       0.081200
     30 H5           8.2790    13.0730    10.6110 hc         1 TJG       0.081200
     31 H6          14.6160    -0.4530     4.0150 hc         1 TJG       0.042033
     32 H7          14.9150    -1.1190     2.4060 hc         1 TJG       0.042033
     33 H8          15.5960     0.4380     2.8560 hc         1 TJG       0.042033
     34 H9          12.7180     1.2300     0.5160 hc         1 TJG       0.042033
     35 H10         14.4320     1.5180     0.8020 hc         1 TJG       0.042033
     36 H11         13.8730    -0.0970     0.3890 hc         1 TJG       0.042033
     37 H12         12.2450    -0.7090     3.4090 ho         1 TJG       0.399000
     38 H13         13.0320     1.3610     4.3250 hc         1 TJG       0.037700
     39 H14         15.1440     2.4120     3.5580 hc         1 TJG       0.049450
     40 H15         14.2930     3.1900     2.2390 hc         1 TJG       0.049450
     41 H16         13.8130     3.6290     5.2190 hc         1 TJG       0.045700
     42 H17         14.6000     4.7450     4.1100 hc         1 TJG       0.045700
     43 H18         12.5170     4.9760     2.8150 h1         1 TJG       0.076700
     44 H19         10.4250     3.9130     3.5940 hc         1 TJG       0.045700
     45 H20         11.2970     3.1170     4.8960 hc         1 TJG       0.045700
     46 H21         11.7590     2.7100     1.9040 hc         1 TJG       0.049450
     47 H22         10.9550     1.5830     2.9770 hc         1 TJG       0.049450
     48 H23         12.6290     5.6640     5.6300 hn         1 TJG       0.311500
     49 H24         11.3730     7.3760     9.5720 ha         1 TJG       0.138000
     50 H25         11.5310     6.4760     7.2230 ha         1 TJG       0.133000
     51 H26         10.7840    13.2530     8.7820 hc         1 TJG       0.081200
     52 H27         10.6760    13.8580    10.5020 hc         1 TJG       0.081200
     53 C14         11.3360     6.6700     4.4260 c          1 TJG       0.686700
@<TRIPOS>BOND
     1     1    19 ar  
     2     1    20 ar  
     3     1    26 1   
     4     2     3 ar  
     5     2     5 1   
     6     2    22 ar  
     7     3    23 ar  
     8     3    27 1   
     9     4    21 ar  
    10     4    23 ar  
    11     4    24 ar  
    12     5     6 1   
    13     5    25 1   
    14     5    28 1   
    15     6    25 1   
    16     6    29 1   
    17     6    30 1   
    18     7     8 1   
    19     7    31 1   
    20     7    32 1   
    21     7    33 1   
    22     8     9 1   
    23     8    10 1   
    24     8    11 1   
    25     9    34 1   
    26     9    35 1   
    27     9    36 1   
    28    10    37 1   
    29    11    12 1   
    30    11    16 1   
    31    11    38 1   
    32    12    13 1   
    33    12    39 1   
    34    12    40 1   
    35    13    14 1   
    36    13    41 1   
    37    13    42 1   
    38    14    15 1   
    39    14    17 1   
    40    14    43 1   
    41    15    16 1   
    42    15    44 1   
    43    15    45 1   
    44    16    46 1   
    45    16    47 1   
    46    17    48 1   
    47    17    53 1   
    48    18    53 2   
    49    19    24 ar  
    50    19    53 1   
    51    20    21 ar  
    52    21    22 ar  
    53    23    49 1   
    54    24    50 1   
    55    25    51 1   
    56    25    52 1   
@<TRIPOS>SUBSTRUCTURE
     1 TJG         1 TEMP              0 ****  ****    0 ROOT
