@<TRIPOS>MOLECULE
TJH
   54    58     1     0     0
SMALL
bcc


@<TRIPOS>ATOM
      1 OAB          3.6360     0.6070     2.3580 o          1 TJH      -0.514100
      2 CBB          4.0560     0.2440     1.2810 c          1 TJH       0.573900
      3 CBE          5.4930     0.0690     1.0030 ca         1 TJH      -0.097600
      4 CAH          6.4110     0.3390     2.0020 ca         1 TJH      -0.123000
      5 CAE          7.7690     0.1780     1.7380 ca         1 TJH      -0.081000
      6 CAF          8.2030    -0.2470     0.5010 ca         1 TJH      -0.159000
      7 CAV          7.2810    -0.5250    -0.5170 ca         1 TJH       0.213100
      8 OAC          7.7450    -0.9330    -1.6930 oh         1 TJH      -0.507100
      9 CBF          5.9110    -0.3640    -0.2650 ca         1 TJH      -0.252600
     10 CBA          4.9250    -0.6450    -1.3250 c          1 TJH       0.618900
     11 OAA          5.3180    -1.0290    -2.4390 o          1 TJH      -0.593100
     12 CAJ          3.5340    -0.4700    -1.0500 cc         1 TJH      -0.373200
     13 CAX          3.0850    -0.0440     0.1690 cd         1 TJH       0.146800
     14 NAS          1.8110     0.1540     0.4840 nu         1 TJH      -0.748000
     15 CAN          0.7210    -0.0430    -0.4390 c3         1 TJH       0.211800
     16 CAO         -0.5870     0.4190     0.1840 c3         1 TJH       0.183800
     17 NAT         -1.6800     0.2680    -0.7630 nu         1 TJH      -0.752600
     18 CAZ         -2.9210    -0.1950    -0.3450 ca         1 TJH       0.171600
     19 CAY         -3.0870    -1.5040     0.0790 ca         1 TJH      -0.205600
     20 CAQ         -1.9300    -2.4740     0.0480 c6         1 TJH      -0.018100
     21 CAM         -2.2380    -3.8630     0.5990 c6         1 TJH      -0.077400
     22 CAL         -3.6310    -4.3250     0.2120 c6         1 TJH      -0.074400
     23 CAP         -4.6500    -3.3650     0.8030 c6         1 TJH      -0.135700
     24 CAW         -4.4010    -1.9380     0.3940 ca         1 TJH       0.463600
     25 NAR         -5.4640    -1.1720     0.3220 nb         1 TJH      -0.683000
     26 CBC         -5.3160     0.1100    -0.0630 ca         1 TJH       0.427600
     27 CBD         -4.0590     0.6630    -0.4020 ca         1 TJH      -0.185300
     28 CAI         -3.9960     2.0300    -0.7540 ca         1 TJH      -0.108000
     29 CAG         -5.1210     2.8070    -0.7980 ca         1 TJH      -0.122000
     30 CAU         -6.3650     2.2310    -0.4860 ca         1 TJH       0.035400
     31 CL          -7.7810     3.2260    -0.5610 cl         1 TJH      -0.103400
     32 CAK         -6.4740     0.9200    -0.1210 ca         1 TJH      -0.160300
     33 H1           6.0810     0.6740     2.9760 ha         1 TJH       0.154000
     34 H2           8.4950     0.3890     2.5120 ha         1 TJH       0.140000
     35 H3           9.2600    -0.3690     0.2990 ha         1 TJH       0.154000
     36 H4           6.9570    -1.0770    -2.2760 ho         1 TJH       0.485000
     37 H5           2.8430    -0.6860    -1.8550 ha         1 TJH       0.158000
     38 H6           1.6080     0.4630     1.4230 hn         1 TJH       0.458800
     39 H7           0.9130     0.5250    -1.3550 h1         1 TJH       0.061200
     40 H8           0.6480    -1.0970    -0.7250 h1         1 TJH       0.061200
     41 H9          -0.8010    -0.1500     1.0880 h1         1 TJH       0.048200
     42 H10         -0.4940     1.4640     0.4960 h1         1 TJH       0.048200
     43 H11         -1.7410     1.0660    -1.3760 hn         1 TJH       0.400800
     44 H12         -1.5990    -2.5530    -0.9930 hc         1 TJH       0.050200
     45 H13         -1.0720    -2.0830     0.5970 hc         1 TJH       0.050200
     46 H14         -1.4770    -4.5600     0.2420 hc         1 TJH       0.043700
     47 H15         -2.1630    -3.8530     1.6910 hc         1 TJH       0.043700
     48 H16         -3.7320    -4.3570    -0.8780 hc         1 TJH       0.048700
     49 H17         -3.8190    -5.3360     0.5760 hc         1 TJH       0.048700
     50 H18         -5.6690    -3.6310     0.5200 hc         1 TJH       0.065200
     51 H19         -4.6060    -3.4250     1.8960 hc         1 TJH       0.065200
     52 H20         -3.0480     2.5000    -0.9810 ha         1 TJH       0.126000
     53 H21         -5.0530     3.8530    -1.0650 ha         1 TJH       0.149000
     54 H22         -7.4290     0.4780     0.1300 ha         1 TJH       0.166000
@<TRIPOS>BOND
     1     1     2 2   
     2     2     3 1   
     3     2    13 1   
     4     3     4 ar  
     5     3     9 ar  
     6     4     5 ar  
     7     4    33 1   
     8     5     6 ar  
     9     5    34 1   
    10     6     7 ar  
    11     6    35 1   
    12     7     8 1   
    13     7     9 ar  
    14     8    36 1   
    15     9    10 1   
    16    10    11 2   
    17    10    12 1   
    18    12    13 2   
    19    12    37 1   
    20    13    14 1   
    21    14    15 1   
    22    14    38 1   
    23    15    16 1   
    24    15    39 1   
    25    15    40 1   
    26    16    17 1   
    27    16    41 1   
    28    16    42 1   
    29    17    18 1   
    30    17    43 1   
    31    18    19 ar  
    32    18    27 ar  
    33    19    20 1   
    34    19    24 ar  
    35    20    21 1   
    36    20    44 1   
    37    20    45 1   
    38    21    22 1   
    39    21    46 1   
    40    21    47 1   
    41    22    23 1   
    42    22    48 1   
    43    22    49 1   
    44    23    24 1   
    45    23    50 1   
    46    23    51 1   
    47    24    25 ar  
    48    25    26 ar  
    49    26    27 ar  
    50    26    32 ar  
    51    27    28 ar  
    52    28    29 ar  
    53    28    52 1   
    54    29    30 ar  
    55    29    53 1   
    56    30    31 1   
    57    30    32 ar  
    58    32    54 1   
@<TRIPOS>SUBSTRUCTURE
     1 TJH         1 TEMP              0 ****  ****    0 ROOT
