@<TRIPOS>MOLECULE
TJH
   54    58     1     0     0
SMALL
No Charge or Current Charge


@<TRIPOS>ATOM
      1 OAB          3.8610     0.5610     2.5070 o          1 TJH      -0.514100
      2 CBB          4.2590     0.3420     1.3630 c          1 TJH       0.573900
      3 CBE          5.7370     0.3310     1.0290 ca         1 TJH      -0.097600
      4 CAH          6.6850     0.5760     2.0490 ca         1 TJH      -0.105000
      5 CAE          8.0580     0.5720     1.7680 ca         1 TJH      -0.063000
      6 CAF          8.5000     0.3220     0.4620 ca         1 TJH      -0.141000
      7 CAV          7.5760     0.0760    -0.5620 ca         1 TJH       0.213100
      8 OAC          8.0490    -0.1620    -1.8160 oh         1 TJH      -0.546100
      9 CBF          6.1860     0.0770    -0.2970 ca         1 TJH      -0.252600
     10 CBA          5.1910    -0.1880    -1.4040 c          1 TJH       0.618900
     11 OAA          5.5530    -0.4090    -2.5520 o          1 TJH      -0.593100
     12 CAJ          3.7710    -0.1710    -1.0530 cc         1 TJH      -0.423200
     13 CAX          3.3060     0.0710     0.2200 cd         1 TJH       0.146800
     14 NAS          1.9390     0.0690     0.4720 nu         1 TJH      -0.803200
     15 CAN          0.8440    -0.1780    -0.4950 c3         1 TJH       0.211800
     16 CAO         -0.5580    -0.1170     0.1740 c3         1 TJH       0.183800
     17 NAT         -1.6560    -0.3600    -0.7900 nu         1 TJH      -0.946200
     18 CAZ         -2.9860    -0.5690    -0.3970 ca         1 TJH       0.310000
     19 CAY         -3.4190    -1.8530    -0.0050 ca         1 TJH      -0.140300
     20 CAQ         -2.4740    -3.0730    -0.0370 c6         1 TJH      -0.018100
     21 CAM         -3.0230    -4.3120     0.7060 c6         1 TJH      -0.077400
     22 CAL         -4.4990    -4.5600     0.3450 c6         1 TJH      -0.074400
     23 CAP         -5.3610    -3.3540     0.7780 c6         1 TJH      -0.135700
     24 CAW         -4.7750    -2.0060     0.3510 ca         1 TJH       0.398300
     25 NAR         -5.6610    -0.9900     0.3500 nb         1 TJH      -0.683000
     26 CBC         -5.2520     0.2390    -0.0220 ca         1 TJH       0.297000
     27 CBD         -3.9140     0.4980    -0.4110 ca         1 TJH      -0.120000
     28 CAI         -3.5390     1.8120    -0.7910 ca         1 TJH      -0.090000
     29 CAG         -4.4850     2.8480    -0.7880 ca         1 TJH      -0.104000
     30 CAU         -5.8060     2.5860    -0.4050 ca         1 TJH       0.127000
     31 Cl          -6.9930     3.8850    -0.4000 cl         1 TJH      -0.195000
     32 CAK         -6.1830     1.2910    -0.0250 ca         1 TJH      -0.077000
     33 H1           6.3590     0.7720     3.0690 ha         1 TJH       0.136000
     34 H2           8.7790     0.7620     2.5610 ha         1 TJH       0.122000
     35 H3           9.5650     0.3180     0.2420 ha         1 TJH       0.136000
     36 H4           7.2480    -0.3090    -2.3840 ho         1 TJH       0.524000
     37 H5           3.1100    -0.3670    -1.8860 ha         1 TJH       0.208000
     38 H6           1.6790     0.2590     1.4460 hn         1 TJH       0.514000
     39 H7           0.8840     0.5700    -1.2990 h1         1 TJH       0.061200
     40 H8           0.9690    -1.1690    -0.9520 h1         1 TJH       0.061200
     41 H9          -0.5920    -0.8640     0.9770 h1         1 TJH       0.048200
     42 H10         -0.6910     0.8700     0.6400 h1         1 TJH       0.048200
     43 H11         -1.5920     0.2130    -1.6320 hn         1 TJH       0.456000
     44 H12         -2.2840    -3.3400    -1.0860 hc         1 TJH       0.050200
     45 H13         -1.4950    -2.8220     0.3910 hc         1 TJH       0.050200
     46 H14         -2.4180    -5.1950     0.4570 hc         1 TJH       0.043700
     47 H15         -2.9290    -4.1650     1.7910 hc         1 TJH       0.043700
     48 H16         -4.5950    -4.7190    -0.7390 hc         1 TJH       0.048700
     49 H17         -4.8620    -5.4760     0.8310 hc         1 TJH       0.048700
     50 H18         -6.3760    -3.4690     0.3730 hc         1 TJH       0.065200
     51 H19         -5.4660    -3.3570     1.8710 hc         1 TJH       0.065200
     52 H20         -2.5190     2.0460    -1.0860 ha         1 TJH       0.108000
     53 H21         -4.1940     3.8550    -1.0800 ha         1 TJH       0.131000
     54 H22         -7.2100     1.0980     0.2710 ha         1 TJH       0.148000
@<TRIPOS>BOND
     1     1     2 2   
     2     2     3 1   
     3     2    13 1   
     4     3     4 ar  
     5     3     9 ar  
     6     4     5 ar  
     7     4    33 1   
     8     5     6 ar  
     9     5    34 1   
    10     6     7 ar  
    11     6    35 1   
    12     7     8 1   
    13     7     9 ar  
    14     8    36 1   
    15     9    10 1   
    16    10    11 2   
    17    10    12 1   
    18    12    13 2   
    19    12    37 1   
    20    13    14 1   
    21    14    15 1   
    22    14    38 1   
    23    15    16 1   
    24    15    39 1   
    25    15    40 1   
    26    16    17 1   
    27    16    41 1   
    28    16    42 1   
    29    17    18 1   
    30    17    43 1   
    31    18    19 ar  
    32    18    27 ar  
    33    19    20 1   
    34    19    24 ar  
    35    20    21 1   
    36    20    44 1   
    37    20    45 1   
    38    21    22 1   
    39    21    46 1   
    40    21    47 1   
    41    22    23 1   
    42    22    48 1   
    43    22    49 1   
    44    23    24 1   
    45    23    50 1   
    46    23    51 1   
    47    24    25 ar  
    48    25    26 ar  
    49    26    27 ar  
    50    26    32 ar  
    51    27    28 ar  
    52    28    29 ar  
    53    28    52 1   
    54    29    30 ar  
    55    29    53 1   
    56    30    31 1   
    57    30    32 ar  
    58    32    54 1   
@<TRIPOS>SUBSTRUCTURE
     1 TJH         1 TEMP              0 ****  ****    0 ROOT
