@<TRIPOS>MOLECULE
TJJ
   13    13     1     0     0
SMALL
No Charge or Current Charge


@<TRIPOS>ATOM
      1 O3           6.1570     1.7980   -10.8020 o          1 TJJ      -0.595000
      2 C9           6.7300     1.9440   -11.8640 c          1 TJJ       0.669400
      3 N1           7.1210     0.8770   -12.6260 nc         1 TJJ      -0.719100
      4 C4           7.7460     1.0340   -13.7840 cd         1 TJJ       0.540500
      5 C3           8.0420     2.3420   -14.2920 cd         1 TJJ      -0.469600
      6 N2           7.0110     3.1800   -12.3460 ns         1 TJJ      -0.468600
      7 C2           7.6580     3.4400   -13.5430 cc         1 TJJ       0.027400
      8 C1           7.8920     4.8860   -13.9320 c          1 TJJ       0.715200
      9 O1           7.4990     5.7630   -13.1710 o          1 TJJ      -0.687000
     10 O2           8.4630     5.1370   -14.9860 o          1 TJJ      -0.687000
     11 H1           8.0070     0.1190   -14.3000 h4         1 TJJ      -0.002200
     12 H2           8.5540     2.4530   -15.2420 ha         1 TJJ       0.211000
     13 H3           6.7100     3.9510   -11.7610 hn         1 TJJ       0.466000
@<TRIPOS>BOND
     1     1     2 2   
     2     2     3 1   
     3     2     6 1   
     4     3     4 2   
     5     4     5 1   
     6     4    11 1   
     7     5     7 2   
     8     5    12 1   
     9     6     7 1   
    10     6    13 1   
    11     7     8 1   
    12     8     9 1   
    13     8    10 1   
@<TRIPOS>SUBSTRUCTURE
     1 TJJ         1 TEMP              0 ****  ****    0 ROOT
