@<TRIPOS>MOLECULE
TJJ
   13    13     1     0     0
SMALL
abcg2


@<TRIPOS>ATOM
      1 O3           6.1620     1.8220   -10.7930 o          1 TJJ      -0.595000
      2 C9           6.7340     1.9310   -11.8660 c          1 TJJ       0.669400
      3 N1           7.1200     0.8600   -12.6250 nc         1 TJJ      -0.719100
      4 C4           7.7310     1.0730   -13.7590 cd         1 TJJ       0.540500
      5 C3           8.0370     2.3370   -14.2900 cd         1 TJJ      -0.469600
      6 N2           7.0270     3.1840   -12.3790 ns         1 TJJ      -0.468600
      7 C2           7.6550     3.4130   -13.5430 cc         1 TJJ       0.027400
      8 C1           7.8850     4.8850   -13.9170 c          1 TJJ       0.715200
      9 O1           7.4360     5.7020   -13.0970 o          1 TJJ      -0.687000
     10 O2           8.4860     5.0750   -14.9790 o          1 TJJ      -0.687000
     11 H1           8.0160     0.1860   -14.3190 h4         1 TJJ      -0.002200
     12 H2           8.5430     2.4500   -15.2350 ha         1 TJJ       0.211000
     13 H3           6.7570     4.0060   -11.8480 hn         1 TJJ       0.466000
@<TRIPOS>BOND
     1     1     2 2   
     2     2     3 1   
     3     2     6 1   
     4     3     4 2   
     5     4     5 1   
     6     4    11 1   
     7     5     7 2   
     8     5    12 1   
     9     6     7 1   
    10     6    13 1   
    11     7     8 1   
    12     8     9 1   
    13     8    10 1   
@<TRIPOS>SUBSTRUCTURE
     1 TJJ         1 TEMP              0 ****  ****    0 ROOT
