@<TRIPOS>MOLECULE
TJK
   31    33     1     0     0
SMALL
No Charge or Current Charge


@<TRIPOS>ATOM
      1 C02        -20.8990   -21.3940    -4.0310 c          1 TJK       0.583500
      2 C03        -22.0090   -21.4760    -3.0100 ca         1 TJK      -0.174600
      3 C04        -23.2010   -22.1640    -3.3300 ca         1 TJK      -0.045000
      4 C05        -24.2450   -22.2600    -2.3950 ca         1 TJK      -0.120000
      5 C06        -21.8900   -20.8790    -1.7320 ca         1 TJK       0.032100
      6 C08        -22.9410   -20.9750    -0.8050 ca         1 TJK      -0.102000
      7 C09        -24.1190   -21.6750    -1.1240 ca         1 TJK       0.026800
      8 C11        -25.0190   -22.1200     1.1390 cc         1 TJK       0.466000
      9 C12        -23.8000   -22.6320     1.7800 ca         1 TJK      -0.172500
     10 C13        -23.4680   -22.2790     3.1070 ca         1 TJK       0.222000
     11 C15        -22.3140   -22.7960     3.7190 ca         1 TJK      -0.160000
     12 C16        -21.4810   -23.6870     3.0220 ca         1 TJK      -0.044000
     13 C17        -21.8160   -24.0650     1.7130 ca         1 TJK      -0.044900
     14 C19        -22.9700   -23.5530     1.0990 ca         1 TJK      -0.042000
     15 C21        -27.0740   -21.5260     0.7630 cd         1 TJK       0.240900
     16 C22        -26.4470   -21.4040    -0.4530 cc         1 TJK      -0.210000
     17 F14        -24.2240   -21.4010     3.8020 f          1 TJK      -0.153000
     18 N10        -25.1570   -21.7910    -0.1970 na         1 TJK      -0.079300
     19 N20        -26.1940   -21.9700     1.7390 nd         1 TJK      -0.638000
     20 Br1        -20.3150   -19.9230    -1.1920 br         1 TJK      -0.071100
     21 Br2        -20.6970   -25.2870     0.7580 br         1 TJK      -0.081100
     22 H1         -19.9810   -20.8430    -3.7400 h4         1 TJK       0.015200
     23 H4         -23.3220   -22.6310    -4.3060 ha         1 TJK       0.145000
     24 H5         -25.1510   -22.8020    -2.6590 ha         1 TJK       0.137000
     25 H6         -22.8330   -20.5030     0.1690 ha         1 TJK       0.150000
     26 H7         -22.0640   -22.5000     4.7340 ha         1 TJK       0.141000
     27 H8         -20.5860   -24.0860     3.4960 ha         1 TJK       0.136000
     28 H9         -23.2190   -23.8830     0.0920 ha         1 TJK       0.137000
     29 H10        -28.1110   -21.3140     0.9930 h4         1 TJK       0.045100
     30 H11        -26.8060   -21.0720    -1.4190 h4         1 TJK       0.164000
     31 O1         -20.9780   -21.9040    -5.1450 o          1 TJK      -0.505100
@<TRIPOS>BOND
     1     1     2 1   
     2     1    22 1   
     3     1    31 2   
     4     2     3 ar  
     5     2     5 ar  
     6     3     4 ar  
     7     3    23 1   
     8     4     7 ar  
     9     4    24 1   
    10     5     6 ar  
    11     5    20 1   
    12     6     7 ar  
    13     6    25 1   
    14     7    18 1   
    15     8     9 1   
    16     8    18 1   
    17     8    19 2   
    18     9    10 ar  
    19     9    14 ar  
    20    10    11 ar  
    21    10    17 1   
    22    11    12 ar  
    23    11    26 1   
    24    12    13 ar  
    25    12    27 1   
    26    13    14 ar  
    27    13    21 1   
    28    14    28 1   
    29    15    16 2   
    30    15    19 1   
    31    15    29 1   
    32    16    18 1   
    33    16    30 1   
@<TRIPOS>SUBSTRUCTURE
     1 TJK         1 TEMP              0 ****  ****    0 ROOT
