@<TRIPOS>MOLECULE
TJK
   31    33     1     0     0
SMALL
abcg2


@<TRIPOS>ATOM
      1 C02        -20.9040   -21.3670    -3.9410 c          1 TJK       0.583500
      2 C03        -21.9820   -21.4360    -2.9280 ca         1 TJK      -0.174600
      3 C04        -23.1820   -22.0550    -3.2820 ca         1 TJK      -0.045000
      4 C05        -24.2260   -22.1800    -2.3880 ca         1 TJK      -0.120000
      5 C06        -21.8710   -20.9170    -1.6360 ca         1 TJK       0.032100
      6 C08        -22.9170   -21.0080    -0.7330 ca         1 TJK      -0.102000
      7 C09        -24.0850   -21.6570    -1.1090 ca         1 TJK       0.026800
      8 C11        -25.0600   -22.1710     1.1280 cc         1 TJK       0.466000
      9 C12        -23.8280   -22.6740     1.7430 ca         1 TJK      -0.172500
     10 C13        -23.3650   -22.1670     2.9500 ca         1 TJK       0.222000
     11 C15        -22.2080   -22.6280     3.5460 ca         1 TJK      -0.160000
     12 C16        -21.4730   -23.6230     2.9230 ca         1 TJK      -0.044000
     13 C17        -21.9180   -24.1400     1.7140 ca         1 TJK      -0.044900
     14 C19        -23.0850   -23.6830     1.1290 ca         1 TJK      -0.042000
     15 C21        -27.1010   -21.6680     0.7530 cd         1 TJK       0.240900
     16 C22        -26.4520   -21.4660    -0.4260 cc         1 TJK      -0.210000
     17 F14        -24.0410   -21.1810     3.5440 f          1 TJK      -0.153000
     18 N10        -25.1380   -21.7810    -0.1810 na         1 TJK      -0.079300
     19 N20        -26.2290   -22.1080     1.7060 nd         1 TJK      -0.638000
     20 BR1        -20.3040   -20.0550    -1.0320 br         1 TJK      -0.071100
     21 BR2        -20.9160   -25.4870     0.8540 br         1 TJK      -0.081100
     22 H1         -19.9660   -20.8850    -3.6300 h4         1 TJK       0.015200
     23 H4         -23.2850   -22.4640    -4.2780 ha         1 TJK       0.145000
     24 H5         -25.1330   -22.6940    -2.6760 ha         1 TJK       0.137000
     25 H6         -22.8340   -20.5700     0.2520 ha         1 TJK       0.150000
     26 H7         -21.8750   -22.2050     4.4840 ha         1 TJK       0.141000
     27 H8         -20.5620   -23.9800     3.3850 ha         1 TJK       0.136000
     28 H9         -23.4340   -24.1080     0.1960 ha         1 TJK       0.137000
     29 H10        -28.1480   -21.5190     0.9630 h4         1 TJK       0.045100
     30 H11        -26.7850   -21.1070    -1.3850 h4         1 TJK       0.164000
     31 O1         -21.0240   -21.8110    -5.0570 o          1 TJK      -0.505100
@<TRIPOS>BOND
     1     1     2 1   
     2     1    22 1   
     3     1    31 2   
     4     2     3 ar  
     5     2     5 ar  
     6     3     4 ar  
     7     3    23 1   
     8     4     7 ar  
     9     4    24 1   
    10     5     6 ar  
    11     5    20 1   
    12     6     7 ar  
    13     6    25 1   
    14     7    18 1   
    15     8     9 1   
    16     8    18 1   
    17     8    19 2   
    18     9    10 ar  
    19     9    14 ar  
    20    10    11 ar  
    21    10    17 1   
    22    11    12 ar  
    23    11    26 1   
    24    12    13 ar  
    25    12    27 1   
    26    13    14 ar  
    27    13    21 1   
    28    14    28 1   
    29    15    16 2   
    30    15    19 1   
    31    15    29 1   
    32    16    18 1   
    33    16    30 1   
@<TRIPOS>SUBSTRUCTURE
     1 TJK         1 TEMP              0 ****  ****    0 ROOT
