@<TRIPOS>MOLECULE
TJL
   19    20     1     0     0
SMALL
No Charge or Current Charge


@<TRIPOS>ATOM
      1 N1         -14.5460    -4.6960   -20.3390 nc         1 TJL      -0.742000
      2 C4         -11.5540    -5.9580   -18.4700 ca         1 TJL      -0.002500
      3 C5         -10.4910    -5.5290   -17.6570 ca         1 TJL      -0.210000
      4 C6         -13.6130    -5.4640   -19.8200 cd         1 TJL       0.583500
      5 C7         -15.2950    -5.6170   -21.0170 cc         1 TJL       0.554900
      6 C          -10.3530    -4.1760   -17.3310 ca         1 TJL       0.354000
      7 O          -13.7430    -6.7840   -20.1360 os         1 TJL      -0.122700
      8 C1         -11.2760    -3.2440   -17.8160 ca         1 TJL      -0.210000
      9 C2         -12.3430    -3.6620   -18.6300 ca         1 TJL      -0.002500
     10 C3         -12.4930    -5.0250   -18.9650 ca         1 TJL      -0.237500
     11 N2         -14.8930    -6.8770   -20.9520 nd         1 TJL      -0.381300
     12 H1         -11.6410    -7.0170   -18.7100 ha         1 TJL       0.132500
     13 H2          -9.7770    -6.2560   -17.2810 ha         1 TJL       0.118500
     14 H3         -16.1680    -5.2880   -21.5690 h5         1 TJL       0.068100
     15 H4          -8.5530    -4.4100   -16.3500 hn         1 TJL       0.475000
     16 H5          -9.1150    -2.7700   -16.4620 hn         1 TJL       0.475000
     17 H6         -11.1740    -2.1920   -17.5640 ha         1 TJL       0.118500
     18 H7         -13.0520    -2.9210   -18.9970 ha         1 TJL       0.132500
     19 N           -9.3180    -3.7650   -16.5420 nv         1 TJL      -1.102000
@<TRIPOS>BOND
     1     1     4 2   
     2     1     5 1   
     3     2     3 ar  
     4     2    10 ar  
     5     2    12 1   
     6     3     6 ar  
     7     3    13 1   
     8     4     7 1   
     9     4    10 1   
    10     5    11 2   
    11     5    14 1   
    12     6     8 ar  
    13     6    19 1   
    14     7    11 1   
    15     8     9 ar  
    16     8    17 1   
    17     9    10 ar  
    18     9    18 1   
    19    15    19 1   
    20    16    19 1   
@<TRIPOS>SUBSTRUCTURE
     1 TJL         1 TEMP              0 ****  ****    0 ROOT
