@<TRIPOS>MOLECULE
TJL
   19    20     1     0     0
SMALL
abcg2


@<TRIPOS>ATOM
      1 N1         -14.5340    -4.6970   -20.3350 nc         1 TJL      -0.742000
      2 C4         -11.5540    -5.9470   -18.4710 ca         1 TJL      -0.002500
      3 C5         -10.5060    -5.5370   -17.6750 ca         1 TJL      -0.210000
      4 C6         -13.5910    -5.4340   -19.7960 cd         1 TJL       0.583500
      5 C7         -15.2890    -5.6090   -21.0120 cc         1 TJL       0.554900
      6 C          -10.3500    -4.1790   -17.3350 ca         1 TJL       0.354000
      7 O          -13.7320    -6.7370   -20.1080 os         1 TJL      -0.122700
      8 C1         -11.2890    -3.2520   -17.8300 ca         1 TJL      -0.210000
      9 C2         -12.3350    -3.6690   -18.6250 ca         1 TJL      -0.002500
     10 C3         -12.4900    -5.0230   -18.9610 ca         1 TJL      -0.237500
     11 N2         -14.8790    -6.8420   -20.9280 nd         1 TJL      -0.381300
     12 H1         -11.6510    -6.9950   -18.7200 ha         1 TJL       0.132500
     13 H2          -9.7890    -6.2600   -17.3060 ha         1 TJL       0.118500
     14 H3         -16.1670    -5.3510   -21.5850 h5         1 TJL       0.068100
     15 H4          -8.5630    -4.4000   -16.3590 hn         1 TJL       0.475000
     16 H5          -9.1150    -2.7930   -16.4740 hn         1 TJL       0.475000
     17 H6         -11.1810    -2.2040   -17.5780 ha         1 TJL       0.118500
     18 H7         -13.0460    -2.9440   -18.9970 ha         1 TJL       0.132500
     19 N           -9.3380    -3.7750   -16.5130 nv         1 TJL      -1.102000
@<TRIPOS>BOND
     1     1     4 2   
     2     1     5 1   
     3     2     3 ar  
     4     2    10 ar  
     5     2    12 1   
     6     3     6 ar  
     7     3    13 1   
     8     4     7 1   
     9     4    10 1   
    10     5    11 2   
    11     5    14 1   
    12     6     8 ar  
    13     6    19 1   
    14     7    11 1   
    15     8     9 ar  
    16     8    17 1   
    17     9    10 ar  
    18     9    18 1   
    19    15    19 1   
    20    16    19 1   
@<TRIPOS>SUBSTRUCTURE
     1 TJL         1 TEMP              0 ****  ****    0 ROOT
