@<TRIPOS>MOLECULE
TJM
   26    27     1     0     0
SMALL
abcg2


@<TRIPOS>ATOM
      1 C1          -4.0480     2.2340     0.3770 c3         1 TJM      -0.021800
      2 C2          -3.0450     1.1490     0.1880 cc         1 TJM      -0.193300
      3 C3          -1.6930     1.2170     0.2990 cd         1 TJM      -0.112000
      4 C4          -1.0330    -0.0290     0.0590 cd         1 TJM      -0.054000
      5 C5          -1.9040    -1.0410    -0.2470 cc         1 TJM      -0.191300
      6 C6          -1.6260    -2.4670    -0.5890 c3         1 TJM      -0.028800
      7 S7          -3.5250    -0.4580    -0.2230 ss         1 TJM       0.200000
      8 C8           0.4160    -0.1530     0.1210 cd         1 TJM      -0.084000
      9 C9           1.4080     0.7320    -0.2490 cc         1 TJM      -0.154000
     10 C10          2.6060     0.0650     0.0490 cc         1 TJM       0.188500
     11 N11          2.3750    -1.1320     0.5660 nd         1 TJM      -0.520800
     12 N12          1.0630    -1.2420     0.5980 na         1 TJM       0.017800
     13 C13          3.9790     0.5760    -0.1670 c          1 TJM       0.537600
     14 O14          4.1590     1.6730    -0.6780 o          1 TJM      -0.605100
     15 N15          4.9650    -0.2400     0.2270 nt         1 TJM      -0.597000
     16 H11C        -4.6240     2.4140    -0.5320 hc         1 TJM       0.049367
     17 H12C        -4.7570     1.9990     1.1710 hc         1 TJM       0.049367
     18 H13C        -3.5440     3.1620     0.6440 hc         1 TJM       0.049367
     19 H3          -1.1700     2.1260     0.5640 ha         1 TJM       0.143000
     20 H61C        -1.6080    -3.1030     0.2990 hc         1 TJM       0.050033
     21 H62C        -2.3840    -2.8720    -1.2580 hc         1 TJM       0.050033
     22 H63C        -0.6640    -2.5670    -1.0920 hc         1 TJM       0.050033
     23 H9           1.2790     1.7070    -0.6860 ha         1 TJM       0.164000
     24 H12          0.6460    -2.0650     1.0060 hn         1 TJM       0.374000
     25 H151         4.7700    -1.1250     0.6630 hn         1 TJM       0.321500
     26 H152         5.9270     0.0390     0.1270 hn         1 TJM       0.321500
@<TRIPOS>BOND
     1     1     2 1   
     2     1    16 1   
     3     1    17 1   
     4     1    18 1   
     5     2     3 2   
     6     2     7 1   
     7     3     4 1   
     8     3    19 1   
     9     4     5 2   
    10     4     8 1   
    11     5     6 1   
    12     5     7 1   
    13     6    20 1   
    14     6    21 1   
    15     6    22 1   
    16     8     9 2   
    17     8    12 1   
    18     9    10 1   
    19     9    23 1   
    20    10    11 2   
    21    10    13 1   
    22    11    12 1   
    23    12    24 1   
    24    13    14 2   
    25    13    15 1   
    26    15    25 1   
    27    15    26 1   
@<TRIPOS>SUBSTRUCTURE
     1 TJM         1 TEMP              0 ****  ****    0 ROOT
