@<TRIPOS>MOLECULE
TJM
   26    27     1     0     0
SMALL
No Charge or Current Charge


@<TRIPOS>ATOM
      1 C1          -3.9110     2.3830     0.1400 c3         1 TJM      -0.021800
      2 C2          -2.9800     1.2030     0.0720 cc         1 TJM      -0.193300
      3 C3          -1.6090     1.2070     0.1030 cd         1 TJM      -0.112000
      4 C4          -1.0320    -0.0930     0.0180 cd         1 TJM      -0.054000
      5 C5          -1.9620    -1.1100    -0.0800 cc         1 TJM      -0.191300
      6 C6          -1.7820    -2.6040    -0.1890 c3         1 TJM      -0.028800
      7 S7          -3.5960    -0.4400    -0.0660 ss         1 TJM       0.200000
      8 C8           0.3970    -0.3190     0.0320 cd         1 TJM      -0.084000
      9 C9           1.3510     0.6460     0.1270 cc         1 TJM      -0.154000
     10 C10          2.5940    -0.0160     0.1040 cc         1 TJM       0.188500
     11 N11          2.4760    -1.3400     0.0020 nd         1 TJM      -0.520800
     12 N12          1.0910    -1.5300    -0.0430 na         1 TJM       0.017800
     13 C13          3.8890     0.7460     0.1910 c          1 TJM       0.537600
     14 O14          3.9810     1.9630     0.2850 o          1 TJM      -0.605100
     15 N15          5.0190    -0.0020     0.1600 nt         1 TJM      -0.597000
     16 H11C        -4.5340     2.4410    -0.7610 hc         1 TJM       0.049367
     17 H12C        -4.5760     2.3050     1.0080 hc         1 TJM       0.049367
     18 H13C        -3.3540     3.3240     0.2260 hc         1 TJM       0.049367
     19 H3          -1.0310     2.1220     0.1850 ha         1 TJM       0.143000
     20 H61C        -1.2590    -3.0050     0.6880 hc         1 TJM       0.050033
     21 H62C        -2.7510    -3.1140    -0.2490 hc         1 TJM       0.050033
     22 H63C        -1.2190    -2.8710    -1.0910 hc         1 TJM       0.050033
     23 H9           1.2180     1.7190     0.2050 ha         1 TJM       0.164000
     24 H12          0.6830    -2.4580    -0.1230 hn         1 TJM       0.374000
     25 H151         4.9440    -1.0070     0.0820 hn         1 TJM       0.321500
     26 H152         5.9210     0.4480     0.2140 hn         1 TJM       0.321500
@<TRIPOS>BOND
     1     1     2 1   
     2     1    16 1   
     3     1    17 1   
     4     1    18 1   
     5     2     3 2   
     6     2     7 1   
     7     3     4 1   
     8     3    19 1   
     9     4     5 2   
    10     4     8 1   
    11     5     6 1   
    12     5     7 1   
    13     6    20 1   
    14     6    21 1   
    15     6    22 1   
    16     8     9 2   
    17     8    12 1   
    18     9    10 1   
    19     9    23 1   
    20    10    11 2   
    21    10    13 1   
    22    11    12 1   
    23    12    24 1   
    24    13    14 2   
    25    13    15 1   
    26    15    25 1   
    27    15    26 1   
@<TRIPOS>SUBSTRUCTURE
     1 TJM         1 TEMP              0 ****  ****    0 ROOT
