@<TRIPOS>MOLECULE
TJO
   76    79     1     0     0
SMALL
No Charge or Current Charge


@<TRIPOS>ATOM
      1 C10        -11.6560     6.3160   124.0890 ca         1 TJO      -0.173000
      2 C11        -10.9090     6.6910   122.9610 ca         1 TJO      -0.077000
      3 C16         -9.9420    11.3320   125.6590 c          1 TJO       0.696000
      4 O4          -9.0000    10.5500   125.6740 o          1 TJO      -0.711500
      5 C14        -10.8580    11.4160   124.3890 c3         1 TJO       0.023300
      6 C15        -10.6180    12.7320   123.6190 c3         1 TJO      -0.069100
      7 O2         -10.6300    10.3440   123.4370 os         1 TJO      -0.325100
      8 C13        -10.9690     9.0220   123.6850 ca         1 TJO       0.220100
      9 C17        -11.7240     8.6360   124.8170 ca         1 TJO      -0.165000
     10 C12        -10.5670     8.0380   122.7560 ca         1 TJO       0.067000
     11 Cl1         -9.6330     8.4710   121.3200 cl         1 TJO      -0.225000
     12 C9         -12.0670     7.2820   125.0260 ca         1 TJO      -0.082300
     13 C8         -12.8910     6.8500   126.2400 c3         1 TJO       0.131900
     14 N2         -12.6050     7.6070   127.4740 na         1 TJO      -0.104700
     15 C18        -13.3590     8.6590   128.0360 cc         1 TJO      -0.068300
     16 C19        -14.6350     9.2180   127.4600 c3         1 TJO      -0.029900
     17 C20        -12.6610     9.0260   129.1840 cd         1 TJO      -0.097400
     18 C21        -13.0660    10.1150   130.1470 c3         1 TJO      -0.016900
     19 C22        -11.4730     8.2080   129.3090 ca         1 TJO      -0.093800
     20 C23        -10.4530     8.2010   130.2700 ca         1 TJO      -0.010000
     21 C7         -11.4770     7.3570   128.2420 ca         1 TJO      -0.001200
     22 C6         -10.4460     6.4280   128.0500 ca         1 TJO      -0.129000
     23 C5          -9.4020     6.3890   128.9980 ca         1 TJO      -0.032000
     24 C4          -9.3900     7.2690   130.1170 ca         1 TJO      -0.177600
     25 C3          -8.2490     7.1890   131.1070 c          1 TJO       0.622700
     26 O1          -7.3280     6.3940   130.9760 o          1 TJO      -0.632100
     27 N1          -8.2930     8.0640   132.1690 ns         1 TJO      -0.506900
     28 C2          -7.3030     8.1400   133.2400 c3         1 TJO       0.165000
     29 C1          -7.4810     6.9890   134.2530 c3         1 TJO      -0.100100
     30 C24         -7.3650     9.5130   133.9060 ca         1 TJO      -0.098300
     31 C25         -6.2890    10.4090   133.7780 ca         1 TJO      -0.093500
     32 C26         -6.3360    11.6790   134.3790 ca         1 TJO      -0.109500
     33 C27         -7.4670    12.0920   135.1260 ca         1 TJO      -0.074300
     34 C30         -7.5640    13.4840   135.8060 c3         1 TJO      -0.000700
     35 C32         -8.7840    14.2520   135.2290 c3         1 TJO      -0.081100
     36 C33         -7.7510    13.2960   137.3360 c3         1 TJO      -0.081100
     37 C31         -6.2990    14.3600   135.5830 c3         1 TJO      -0.081100
     38 C28         -8.5440    11.1820   135.2430 ca         1 TJO      -0.109500
     39 C29         -8.4960     9.9130   134.6420 ca         1 TJO      -0.093500
     40 H1         -11.9170     5.2700   124.2330 ha         1 TJO       0.097000
     41 H2         -10.5960     5.9380   122.2420 ha         1 TJO       0.110000
     42 H4         -11.9040    11.4140   124.7200 h1         1 TJO       0.027700
     43 H5         -11.2680    12.7880   122.7380 hc         1 TJO       0.032033
     44 H6         -10.8370    13.5960   124.2570 hc         1 TJO       0.032033
     45 H7          -9.5750    12.8040   123.2890 hc         1 TJO       0.032033
     46 H8         -12.0510     9.3780   125.5370 ha         1 TJO       0.155000
     47 H9         -13.9550     6.9570   125.9990 h1         1 TJO       0.052200
     48 H10        -12.7170     5.7850   126.4420 h1         1 TJO       0.052200
     49 H11        -15.4850     8.5690   127.7000 hc         1 TJO       0.041367
     50 H12        -14.8490    10.2170   127.8570 hc         1 TJO       0.041367
     51 H13        -14.5720     9.3050   126.3690 hc         1 TJO       0.041367
     52 H14        -14.1570    10.1810   130.2370 hc         1 TJO       0.035367
     53 H15        -12.6680     9.9320   131.1510 hc         1 TJO       0.035367
     54 H16        -12.6960    11.0900   129.8100 hc         1 TJO       0.035367
     55 H17        -10.4940     8.9000   131.0990 ha         1 TJO       0.104000
     56 H18        -10.4410     5.7550   127.1970 ha         1 TJO       0.116000
     57 H19         -8.5970     5.6710   128.8590 ha         1 TJO       0.127000
     58 H20         -9.0720     8.7060   132.2010 hn         1 TJO       0.323500
     59 H21         -6.3090     8.0260   132.7840 h1         1 TJO       0.068700
     60 H22         -6.7440     7.0750   135.0600 hc         1 TJO       0.039367
     61 H23         -8.4830     7.0010   134.6970 hc         1 TJO       0.039367
     62 H24         -7.3360     6.0170   133.7660 hc         1 TJO       0.039367
     63 H25         -5.4070    10.1240   133.2080 ha         1 TJO       0.119500
     64 H26         -5.4760    12.3270   134.2460 ha         1 TJO       0.110000
     65 H27         -8.6910    14.3640   134.1410 hc         1 TJO       0.033256
     66 H28         -9.7260    13.7310   135.4350 hc         1 TJO       0.033256
     67 H29         -8.8600    15.2550   135.6660 hc         1 TJO       0.033256
     68 H30         -6.9180    12.7220   137.7590 hc         1 TJO       0.033256
     69 H31         -7.7890    14.2650   137.8490 hc         1 TJO       0.033256
     70 H32         -8.6800    12.7630   137.5680 hc         1 TJO       0.033256
     71 H33         -5.4050    13.8770   135.9960 hc         1 TJO       0.033256
     72 H34         -6.1320    14.5520   134.5160 hc         1 TJO       0.033256
     73 H35         -6.4050    15.3330   136.0790 hc         1 TJO       0.033256
     74 H36         -9.4350    11.4530   135.8030 ha         1 TJO       0.110000
     75 H37         -9.3450     9.2420   134.7500 ha         1 TJO       0.119500
     76 O3         -10.2300    12.0420   126.6140 o          1 TJO      -0.711500
@<TRIPOS>BOND
     1     1     2 ar  
     2     1    12 ar  
     3     1    40 1   
     4     2    10 ar  
     5     2    41 1   
     6     3     4 1   
     7     3     5 1   
     8     3    76 1   
     9     5     6 1   
    10     5     7 1   
    11     5    42 1   
    12     6    43 1   
    13     6    44 1   
    14     6    45 1   
    15     7     8 1   
    16     8     9 ar  
    17     8    10 ar  
    18     9    12 ar  
    19     9    46 1   
    20    10    11 1   
    21    12    13 1   
    22    13    14 1   
    23    13    47 1   
    24    13    48 1   
    25    14    15 1   
    26    14    21 1   
    27    15    16 1   
    28    15    17 2   
    29    16    49 1   
    30    16    50 1   
    31    16    51 1   
    32    17    18 1   
    33    17    19 1   
    34    18    52 1   
    35    18    53 1   
    36    18    54 1   
    37    19    20 ar  
    38    19    21 ar  
    39    20    24 ar  
    40    20    55 1   
    41    21    22 ar  
    42    22    23 ar  
    43    22    56 1   
    44    23    24 ar  
    45    23    57 1   
    46    24    25 1   
    47    25    26 2   
    48    25    27 1   
    49    27    28 1   
    50    27    58 1   
    51    28    29 1   
    52    28    30 1   
    53    28    59 1   
    54    29    60 1   
    55    29    61 1   
    56    29    62 1   
    57    30    31 ar  
    58    30    39 ar  
    59    31    32 ar  
    60    31    63 1   
    61    32    33 ar  
    62    32    64 1   
    63    33    34 1   
    64    33    38 ar  
    65    34    35 1   
    66    34    36 1   
    67    34    37 1   
    68    35    65 1   
    69    35    66 1   
    70    35    67 1   
    71    36    68 1   
    72    36    69 1   
    73    36    70 1   
    74    37    71 1   
    75    37    72 1   
    76    37    73 1   
    77    38    39 ar  
    78    38    74 1   
    79    39    75 1   
@<TRIPOS>SUBSTRUCTURE
     1 TJO         1 TEMP              0 ****  ****    0 ROOT
