@<TRIPOS>MOLECULE
TJO
   76    79     1     0     0
SMALL
abcg2


@<TRIPOS>ATOM
      1 C10         -9.9760     8.1750   123.9510 ca         1 TJO      -0.173000
      2 C11         -9.5140     9.4000   123.4870 ca         1 TJO      -0.077000
      3 C16        -11.4350    11.2410   128.1540 c          1 TJO       0.696000
      4 O4         -10.1880    11.1980   128.2350 o          1 TJO      -0.711500
      5 C14        -12.0700    11.7700   126.8390 c3         1 TJO       0.023300
      6 C15        -12.4770    13.2260   126.9940 c3         1 TJO      -0.069100
      7 O2         -11.1720    11.7350   125.7150 os         1 TJO      -0.325100
      8 C13        -10.8180    10.5500   125.1810 ca         1 TJO       0.220100
      9 C17        -11.2770     9.3100   125.6280 ca         1 TJO      -0.165000
     10 C12         -9.9300    10.5720   124.0960 ca         1 TJO       0.067000
     11 CL1         -9.3300    12.1060   123.5080 cl         1 TJO      -0.225000
     12 C9         -10.8620     8.1280   125.0240 ca         1 TJO      -0.082300
     13 C8         -11.3660     6.7860   125.5160 c3         1 TJO       0.131900
     14 N2         -11.8590     6.8170   126.8760 na         1 TJO      -0.104700
     15 C18        -13.1930     6.9630   127.2710 cc         1 TJO      -0.068300
     16 C19        -14.2910     6.9060   126.2700 c3         1 TJO      -0.029900
     17 C20        -13.2470     7.1530   128.6310 cd         1 TJO      -0.097400
     18 C21        -14.4550     7.3550   129.4860 c3         1 TJO      -0.016900
     19 C22        -11.8900     7.1510   129.1040 ca         1 TJO      -0.093800
     20 C23        -11.3130     7.3320   130.3600 ca         1 TJO      -0.010000
     21 C7         -11.0520     6.9490   127.9780 ca         1 TJO      -0.001200
     22 C6          -9.6620     6.9330   128.0880 ca         1 TJO      -0.129000
     23 C5          -9.1160     7.1110   129.3460 ca         1 TJO      -0.032000
     24 C4          -9.9230     7.3210   130.4830 ca         1 TJO      -0.177600
     25 C3          -9.2300     7.5310   131.7880 c          1 TJO       0.622700
     26 O1          -8.0690     7.1500   131.9770 o          1 TJO      -0.632100
     27 N1          -9.9340     8.1640   132.7540 ns         1 TJO      -0.506900
     28 C2          -9.3730     8.4860   134.0580 c3         1 TJO       0.165000
     29 C1         -10.5170     8.7190   135.0460 c3         1 TJO      -0.100100
     30 C24         -8.4320     9.6770   134.0140 ca         1 TJO      -0.098300
     31 C25         -7.3240     9.7210   134.8520 ca         1 TJO      -0.093500
     32 C26         -6.4750    10.8250   134.8660 ca         1 TJO      -0.109500
     33 C27         -6.7020    11.9250   134.0400 ca         1 TJO      -0.074300
     34 C30         -5.7890    13.1540   134.0170 c3         1 TJO      -0.000700
     35 C32         -5.1950    13.3210   132.6050 c3         1 TJO      -0.081100
     36 C33         -6.6100    14.4080   134.3760 c3         1 TJO      -0.081100
     37 C31         -4.6310    13.0350   135.0150 c3         1 TJO      -0.081100
     38 C28         -7.8180    11.8690   133.1960 ca         1 TJO      -0.109500
     39 C29         -8.6660    10.7710   133.1810 ca         1 TJO      -0.093500
     40 H1          -9.6360     7.2590   123.4830 ha         1 TJO       0.097000
     41 H2          -8.8230     9.4490   122.6570 ha         1 TJO       0.110000
     42 H4         -12.9470    11.1610   126.6080 h1         1 TJO       0.027700
     43 H5         -12.9510    13.5890   126.0810 hc         1 TJO       0.032033
     44 H6         -13.1820    13.3250   127.8180 hc         1 TJO       0.032033
     45 H7         -11.6010    13.8420   127.2040 hc         1 TJO       0.032033
     46 H8         -11.9490     9.2640   126.4710 ha         1 TJO       0.155000
     47 H9         -12.1670     6.4280   124.8700 h1         1 TJO       0.052200
     48 H10        -10.5620     6.0510   125.4500 h1         1 TJO       0.052200
     49 H11        -14.3070     5.9490   125.7430 hc         1 TJO       0.041367
     50 H12        -15.2520     7.0360   126.7630 hc         1 TJO       0.041367
     51 H13        -14.1880     7.6940   125.5180 hc         1 TJO       0.041367
     52 H14        -14.5280     6.5870   130.2620 hc         1 TJO       0.035367
     53 H15        -14.4170     8.3220   129.9970 hc         1 TJO       0.035367
     54 H16        -15.3740     7.3250   128.9020 hc         1 TJO       0.035367
     55 H17        -11.9510     7.4680   131.2240 ha         1 TJO       0.104000
     56 H18         -9.0270     6.7970   127.2220 ha         1 TJO       0.116000
     57 H19         -8.0420     7.1080   129.4730 ha         1 TJO       0.127000
     58 H20        -10.8210     8.5770   132.5160 hn         1 TJO       0.323500
     59 H21         -8.7960     7.6190   134.3830 h1         1 TJO       0.068700
     60 H22        -10.1160     8.9420   136.0340 hc         1 TJO       0.039367
     61 H23        -11.1310     9.5660   134.7280 hc         1 TJO       0.039367
     62 H24        -11.1500     7.8330   135.1140 hc         1 TJO       0.039367
     63 H25         -7.1140     8.8800   135.5030 ha         1 TJO       0.119500
     64 H26         -5.6240    10.8100   135.5320 ha         1 TJO       0.110000
     65 H27         -4.6070    12.4430   132.3290 hc         1 TJO       0.033256
     66 H28         -5.9750    13.4570   131.8560 hc         1 TJO       0.033256
     67 H29         -4.5400    14.1950   132.5750 hc         1 TJO       0.033256
     68 H30         -7.0410    14.3130   135.3750 hc         1 TJO       0.033256
     69 H31         -5.9680    15.2920   134.3620 hc         1 TJO       0.033256
     70 H32         -7.4230    14.5690   133.6680 hc         1 TJO       0.033256
     71 H33         -4.9910    12.9350   136.0410 hc         1 TJO       0.033256
     72 H34         -3.9930    12.1780   134.7900 hc         1 TJO       0.033256
     73 H35         -4.0150    13.9340   134.9630 hc         1 TJO       0.033256
     74 H36         -8.0330    12.6960   132.5310 ha         1 TJO       0.110000
     75 H37         -9.5120    10.7630   132.5040 ha         1 TJO       0.119500
     76 O3         -12.2700    10.9410   129.0430 o          1 TJO      -0.711500
@<TRIPOS>BOND
     1     1     2 ar  
     2     1    12 ar  
     3     1    40 1   
     4     2    10 ar  
     5     2    41 1   
     6     3     4 1   
     7     3     5 1   
     8     3    76 1   
     9     5     6 1   
    10     5     7 1   
    11     5    42 1   
    12     6    43 1   
    13     6    44 1   
    14     6    45 1   
    15     7     8 1   
    16     8     9 ar  
    17     8    10 ar  
    18     9    12 ar  
    19     9    46 1   
    20    10    11 1   
    21    12    13 1   
    22    13    14 1   
    23    13    47 1   
    24    13    48 1   
    25    14    15 1   
    26    14    21 1   
    27    15    16 1   
    28    15    17 2   
    29    16    49 1   
    30    16    50 1   
    31    16    51 1   
    32    17    18 1   
    33    17    19 1   
    34    18    52 1   
    35    18    53 1   
    36    18    54 1   
    37    19    20 ar  
    38    19    21 ar  
    39    20    24 ar  
    40    20    55 1   
    41    21    22 ar  
    42    22    23 ar  
    43    22    56 1   
    44    23    24 ar  
    45    23    57 1   
    46    24    25 1   
    47    25    26 2   
    48    25    27 1   
    49    27    28 1   
    50    27    58 1   
    51    28    29 1   
    52    28    30 1   
    53    28    59 1   
    54    29    60 1   
    55    29    61 1   
    56    29    62 1   
    57    30    31 ar  
    58    30    39 ar  
    59    31    32 ar  
    60    31    63 1   
    61    32    33 ar  
    62    32    64 1   
    63    33    34 1   
    64    33    38 ar  
    65    34    35 1   
    66    34    36 1   
    67    34    37 1   
    68    35    65 1   
    69    35    66 1   
    70    35    67 1   
    71    36    68 1   
    72    36    69 1   
    73    36    70 1   
    74    37    71 1   
    75    37    72 1   
    76    37    73 1   
    77    38    39 ar  
    78    38    74 1   
    79    39    75 1   
@<TRIPOS>SUBSTRUCTURE
     1 TJO         1 TEMP              0 ****  ****    0 ROOT
