@<TRIPOS>MOLECULE
TJS
   23    24     1     0     0
SMALL
bcc


@<TRIPOS>ATOM
      1 C9          35.2060   -25.2990    15.7870 c6         1 TJS      -0.043200
      2 N1          36.9540   -22.1270    13.5600 nc         1 TJS      -0.645100
      3 C7          33.8060   -23.6230    17.0070 c6         1 TJS      -0.079400
      4 C5          35.5680   -22.8290    15.4100 cd         1 TJS      -0.270800
      5 C6          34.6910   -22.4600    16.5760 c6         1 TJS      -0.011200
      6 C8          34.6280   -24.8980    17.1380 c6         1 TJS      -0.066400
      7 N2          36.5720   -24.3910    13.9890 ns         1 TJS      -0.470100
      8 C4          35.7890   -24.1290    15.0620 cc         1 TJS       0.038400
      9 O3          36.7260   -20.0430    15.9630 o          1 TJS      -0.799800
     10 O2          35.3380   -19.7010    14.2310 o          1 TJS      -0.799800
     11 C2          36.2100   -21.8530    14.6020 cd         1 TJS       0.494600
     12 C1          37.1700   -23.4240    13.2010 c          1 TJS       0.816900
     13 O1          37.8530   -23.7530    12.2420 o          1 TJS      -0.671500
     14 H1          34.4240   -25.7350    15.1570 hc         1 TJS       0.041200
     15 H2          35.9690   -26.0730    15.9040 hc         1 TJS       0.041200
     16 H3          33.3170   -23.3830    17.9520 hc         1 TJS       0.033200
     17 H4          33.0120   -23.7770    16.2700 hc         1 TJS       0.033200
     18 H6          35.3090   -22.1380    17.4190 hc         1 TJS       0.068200
     19 H7          34.0690   -21.6020    16.3110 hc         1 TJS       0.068200
     20 H8          34.0220   -25.7160    17.5270 hc         1 TJS       0.035200
     21 H9          35.4380   -24.7370    17.8550 hc         1 TJS       0.035200
     22 H5          36.7380   -25.3560    13.7330 hn         1 TJS       0.300500
     23 C3          36.0710   -20.3820    14.9630 c          1 TJS       0.852300
@<TRIPOS>BOND
     1     1     6 1   
     2     1     8 1   
     3     1    14 1   
     4     1    15 1   
     5     2    11 2   
     6     2    12 1   
     7     3     5 1   
     8     3     6 1   
     9     3    16 1   
    10     3    17 1   
    11     4     5 1   
    12     4     8 2   
    13     4    11 1   
    14     5    18 1   
    15     5    19 1   
    16     6    20 1   
    17     6    21 1   
    18     7     8 1   
    19     7    12 1   
    20     7    22 1   
    21     9    23 1   
    22    10    23 1   
    23    11    23 1   
    24    12    13 2   
@<TRIPOS>SUBSTRUCTURE
     1 TJS         1 TEMP              0 ****  ****    0 ROOT
