@<TRIPOS>MOLECULE
TJS
   23    24     1     0     0
SMALL
No Charge or Current Charge


@<TRIPOS>ATOM
      1 C9          35.1940   -25.3320    15.7570 c6         1 TJS      -0.043200
      2 N1          36.8740   -22.1580    13.4900 nc         1 TJS      -0.645100
      3 C7          33.8900   -23.6980    17.1760 c6         1 TJS      -0.079400
      4 C5          35.5250   -22.8060    15.3960 cd         1 TJS      -0.270800
      5 C6          34.6800   -22.4820    16.6310 c6         1 TJS      -0.011200
      6 C8          34.7610   -24.9680    17.1930 c6         1 TJS      -0.066400
      7 N2          36.4800   -24.3920    13.9090 ns         1 TJS      -0.516600
      8 C4          35.7350   -24.1230    15.0260 cc         1 TJS       0.038400
      9 O3          35.5130   -19.8110    15.8470 o          1 TJS      -0.694500
     10 O2          36.6520   -19.4540    14.0880 o          1 TJS      -0.694500
     11 C2          36.1670   -21.7680    14.5680 cd         1 TJS       0.494600
     12 C1          37.0510   -23.4570    13.1210 c          1 TJS       0.674400
     13 O1          37.6930   -23.7700    12.1380 o          1 TJS      -0.596000
     14 H1          34.3310   -25.7400    15.2120 hc         1 TJS       0.041200
     15 H2          35.9400   -26.1380    15.7990 hc         1 TJS       0.041200
     16 H3          33.5210   -23.4790    18.1870 hc         1 TJS       0.033200
     17 H4          33.0030   -23.8720    16.5510 hc         1 TJS       0.033200
     18 H6          35.3280   -22.0940    17.4290 hc         1 TJS       0.068200
     19 H7          33.9510   -21.6910    16.4110 hc         1 TJS       0.068200
     20 H8          34.2070   -25.8040    17.6410 hc         1 TJS       0.035200
     21 H9          35.6480   -24.8030    17.8210 hc         1 TJS       0.035200
     22 H5          36.6360   -25.3480    13.6120 hn         1 TJS       0.414000
     23 C3          36.0980   -20.2420    14.8560 c          1 TJS       0.641700
@<TRIPOS>BOND
     1     1     6 1   
     2     1     8 1   
     3     1    14 1   
     4     1    15 1   
     5     2    11 2   
     6     2    12 1   
     7     3     5 1   
     8     3     6 1   
     9     3    16 1   
    10     3    17 1   
    11     4     5 1   
    12     4     8 2   
    13     4    11 1   
    14     5    18 1   
    15     5    19 1   
    16     6    20 1   
    17     6    21 1   
    18     7     8 1   
    19     7    12 1   
    20     7    22 1   
    21     9    23 1   
    22    10    23 1   
    23    11    23 1   
    24    12    13 2   
@<TRIPOS>SUBSTRUCTURE
     1 TJS         1 TEMP              0 ****  ****    0 ROOT
