@<TRIPOS>MOLECULE
TJV
   19    20     1     0     0
SMALL
bcc


@<TRIPOS>ATOM
      1 C4          41.7750    26.6520    26.0560 ca         1 TJV      -0.103000
      2 C5          41.6970    25.7910    24.9410 ca         1 TJV      -0.134600
      3 C6          42.8070    24.8610    24.6410 cs         1 TJV       0.483000
      4 C7          39.2910    29.0180    27.0500 c5         1 TJV       0.329200
      5 S           42.5630    23.3950    23.8800 s          1 TJV      -0.578400
      6 N           44.0130    25.2470    25.0270 nt         1 TJV      -0.567000
      7 C           40.5810    25.8220    24.1110 ca         1 TJV      -0.062000
      8 C3          40.7200    27.4970    26.2670 ca         1 TJV       0.044100
      9 O           40.5510    28.3950    27.2640 os         1 TJV      -0.320900
     10 O1          38.7350    28.4430    25.8710 os         1 TJV      -0.314900
     11 C2          39.6160    27.5260    25.4270 ca         1 TJV       0.082100
     12 C1          39.5180    26.6980    24.3360 ca         1 TJV      -0.126000
     13 H1          42.6100    26.6310    26.7430 ha         1 TJV       0.149000
     14 H2          39.4270    30.0920    26.9060 h2         1 TJV       0.068200
     15 H3          44.8080    24.6480    24.8710 hn         1 TJV       0.325000
     16 H4          44.1990    26.1710    25.3830 hn         1 TJV       0.325000
     17 H5          40.5400    25.1510    23.2640 ha         1 TJV       0.172000
     18 H6          38.6600    26.7180    23.6780 ha         1 TJV       0.161000
     19 H8          38.6310    28.8260    27.8990 h2         1 TJV       0.068200
@<TRIPOS>BOND
     1     1     2 ar  
     2     1     8 ar  
     3     1    13 1   
     4     2     3 1   
     5     2     7 ar  
     6     3     5 2   
     7     3     6 1   
     8     4     9 1   
     9     4    10 1   
    10     4    14 1   
    11     4    19 1   
    12     6    15 1   
    13     6    16 1   
    14     7    12 ar  
    15     7    17 1   
    16     8     9 1   
    17     8    11 ar  
    18    10    11 1   
    19    11    12 ar  
    20    12    18 1   
@<TRIPOS>SUBSTRUCTURE
     1 TJV         1 TEMP              0 ****  ****    0 ROOT
