@<TRIPOS>MOLECULE
TJV
   19    20     1     0     0
SMALL
No Charge or Current Charge


@<TRIPOS>ATOM
      1 C4          41.8320    26.7960    25.9140 ca         1 TJV      -0.085000
      2 C5          41.7370    25.8430    24.8610 ca         1 TJV      -0.134600
      3 C6          42.8950    24.9290    24.5080 cs         1 TJV       0.416000
      4 C7          39.2890    29.0690    27.0280 c5         1 TJV       0.375600
      5 S           42.8440    23.7920    23.2830 s          1 TJV      -0.578400
      6 N           44.0280    25.0440    25.2280 nt         1 TJV      -0.500000
      7 C           40.5160    25.7600    24.1300 ca         1 TJV      -0.044000
      8 C3          40.7260    27.6100    26.1910 ca         1 TJV       0.044100
      9 O           40.6670    28.5640    27.1550 os         1 TJV      -0.344100
     10 O1          38.6240    28.3960    25.9010 os         1 TJV      -0.338100
     11 C2          39.5660    27.5150    25.4800 ca         1 TJV       0.082100
     12 C1          39.4230    26.5990    24.4360 ca         1 TJV      -0.108000
     13 H1          42.7320    26.9150    26.5110 ha         1 TJV       0.131000
     14 H2          39.3100    30.1500    26.8490 h2         1 TJV       0.068200
     15 H3          44.8170    24.4500    25.0170 hn         1 TJV       0.325000
     16 H4          44.0990    25.7180    25.9750 hn         1 TJV       0.325000
     17 H5          40.4060    25.0450    23.3180 ha         1 TJV       0.154000
     18 H6          38.4930    26.5360    23.8760 ha         1 TJV       0.143000
     19 H8          38.7400    28.8520    27.9520 h2         1 TJV       0.068200
@<TRIPOS>BOND
     1     1     2 ar  
     2     1     8 ar  
     3     1    13 1   
     4     2     3 1   
     5     2     7 ar  
     6     3     5 2   
     7     3     6 1   
     8     4     9 1   
     9     4    10 1   
    10     4    14 1   
    11     4    19 1   
    12     6    15 1   
    13     6    16 1   
    14     7    12 ar  
    15     7    17 1   
    16     8     9 1   
    17     8    11 ar  
    18    10    11 1   
    19    11    12 ar  
    20    12    18 1   
@<TRIPOS>SUBSTRUCTURE
     1 TJV         1 TEMP              0 ****  ****    0 ROOT
