@<TRIPOS>MOLECULE
TJW
   92    96     1     0     0
SMALL
abcg2


@<TRIPOS>ATOM
      1 C17        -20.7120    11.2020   -20.7030 cc         1 TJW       0.345000
      2 C19        -22.0160    10.1720   -18.8400 ca         1 TJW       0.021800
      3 C21        -24.1690    10.7280   -17.9270 ca         1 TJW      -0.097500
      4 C23        -23.3280     8.4780   -17.7540 ca         1 TJW      -0.097500
      5 C24        -22.1710     8.8520   -18.4260 ca         1 TJW      -0.110000
      6 C27        -12.3890    20.4040   -22.3130 c          1 TJW       0.593100
      7 C13        -19.3380    11.3440   -20.9480 cd         1 TJW      -0.379600
      8 C20        -23.0070    11.1160   -18.5840 ca         1 TJW      -0.110000
      9 C22        -24.3310     9.4110   -17.5090 ca         1 TJW      -0.108000
     10 C26        -13.2060    19.7500   -21.2030 c3         1 TJW       0.035700
     11 C03        -15.3730    16.7000   -21.8290 ca         1 TJW      -0.146600
     12 C04        -14.4730    15.7910   -22.3850 ca         1 TJW      -0.071500
     13 C05        -14.9140    14.5510   -22.8340 ca         1 TJW      -0.108000
     14 C06        -16.2570    14.1950   -22.7440 ca         1 TJW      -0.092300
     15 C07        -17.1570    15.1080   -22.1890 ca         1 TJW      -0.108000
     16 C08        -16.7200    16.3400   -21.7320 ca         1 TJW      -0.071500
     17 C09        -16.7310    12.8420   -23.2200 c3         1 TJW       0.144300
     18 C11        -18.7850    12.0290   -22.1080 c          1 TJW       0.665700
     19 C14        -18.7190    10.7220   -19.8360 cd         1 TJW       0.310900
     20 C30        -11.7070    22.5800   -23.2640 c6         1 TJW       0.106700
     21 C31        -12.5260    23.6430   -23.9880 c6         1 TJW      -0.083400
     22 C32        -11.6060    24.5920   -24.7530 c6         1 TJW      -0.074400
     23 C33        -10.5480    25.1980   -23.8400 c6         1 TJW       0.206800
     24 C35        -10.6420    23.2210   -22.3670 c6         1 TJW       0.190800
     25 C39         -7.2870    24.3980   -24.0490 c3         1 TJW      -0.348100
     26 C40        -12.2970    19.4270   -19.9980 c3         1 TJW      -0.088400
     27 C41        -11.5800    20.6240   -19.3720 c3         1 TJW      -0.074400
     28 C42        -12.4760    21.7270   -18.8000 c6         1 TJW      -0.060700
     29 C43        -11.6270    22.9190   -18.3430 c6         1 TJW      -0.074900
     30 C44        -12.4800    24.0500   -17.7700 c6         1 TJW      -0.072900
     31 C45        -13.3680    23.5510   -16.6280 c6         1 TJW      -0.075400
     32 C46        -14.2240    22.3640   -17.0740 c6         1 TJW      -0.072900
     33 C47        -13.3670    21.2360   -17.6540 c6         1 TJW      -0.074900
     34 N10        -17.4340    12.1020   -22.1880 ns         1 TJW      -0.497900
     35 N15        -19.5930    10.2500   -18.9730 nc         1 TJW      -0.510800
     36 N16        -20.8290    10.5550   -19.5150 na         1 TJW       0.149000
     37 N18        -21.7540    11.5330   -21.5050 nv         1 TJW      -1.077000
     38 N25        -13.7940    18.5350   -21.7360 ns         1 TJW      -0.498900
     39 N29        -12.5530    21.7300   -22.4440 ns         1 TJW      -0.499900
     40 N34         -9.8020    24.1140   -23.1720 n3         1 TJW      -0.770500
     41 O01        -15.6600    18.6300   -20.4620 o          1 TJW      -0.615100
     42 O12        -19.5230    12.5150   -22.9830 o          1 TJW      -0.664100
     43 O37         -8.2640    25.8620   -22.1210 o          1 TJW      -0.550000
     44 O38         -7.9020    23.4500   -21.6830 o          1 TJW      -0.550000
     45 S36         -8.3040    24.4950   -22.6010 s6         1 TJW       1.227100
     46 H1         -24.9400    11.4610   -17.7280 ha         1 TJW       0.120000
     47 H2         -23.4480     7.4520   -17.4300 ha         1 TJW       0.120000
     48 H3         -21.3900     8.1330   -18.6320 ha         1 TJW       0.127500
     49 H4         -22.8610    12.1480   -18.8750 ha         1 TJW       0.127500
     50 H5         -25.2330     9.1140   -16.9900 ha         1 TJW       0.119000
     51 H6         -14.0210    20.4020   -20.8950 h1         1 TJW       0.085700
     52 H7         -13.4170    16.0170   -22.4460 ha         1 TJW       0.125500
     53 H8         -14.2000    13.8470   -23.2460 ha         1 TJW       0.123000
     54 H9         -18.2040    14.8460   -22.1100 ha         1 TJW       0.123000
     55 H10        -17.4180    17.0410   -21.2950 ha         1 TJW       0.125500
     56 H11        -17.4180    12.9590   -24.0590 h1         1 TJW       0.069700
     57 H12        -15.8810    12.2510   -23.5610 h1         1 TJW       0.069700
     58 H13        -17.6630    10.6150   -19.6310 h4         1 TJW       0.034100
     59 H14        -11.2100    21.9380   -23.9900 h1         1 TJW       0.095700
     60 H15        -13.1050    24.2070   -23.2470 hc         1 TJW       0.051200
     61 H16        -13.2370    23.1630   -24.6630 hc         1 TJW       0.051200
     62 H17        -12.1870    25.4000   -25.2020 hc         1 TJW       0.054700
     63 H18        -11.1100    24.0530   -25.5650 hc         1 TJW       0.054700
     64 H19         -9.8550    25.8060   -24.4180 h1         1 TJW       0.052200
     65 H20        -11.0160    25.8420   -23.0870 h1         1 TJW       0.052200
     66 H21        -10.0190    22.4490   -21.9260 h1         1 TJW       0.064700
     67 H22        -11.1370    23.7730   -21.5590 h1         1 TJW       0.064700
     68 H23         -6.2830    24.6920   -23.7440 h1         1 TJW       0.104033
     69 H24         -7.3040    23.3730   -24.4100 h1         1 TJW       0.104033
     70 H25         -7.6680    25.0850   -24.8020 h1         1 TJW       0.104033
     71 H26        -12.9200    18.9220   -19.2590 hc         1 TJW       0.059700
     72 H27        -11.5550    18.7000   -20.3370 hc         1 TJW       0.059700
     73 H28        -10.9400    20.2490   -18.5680 hc         1 TJW       0.047700
     74 H29        -10.9060    21.0690   -20.1100 hc         1 TJW       0.047700
     75 H30        -13.1400    22.0940   -19.5910 hc         1 TJW       0.027700
     76 H31        -10.9190    22.5740   -17.5790 hc         1 TJW       0.042700
     77 H32        -11.0290    23.2840   -19.1830 hc         1 TJW       0.042700
     78 H33        -11.8390    24.8660   -17.4240 hc         1 TJW       0.038450
     79 H34        -13.1120    24.4610   -18.5650 hc         1 TJW       0.038450
     80 H35        -12.7330    23.2400   -15.7910 hc         1 TJW       0.039200
     81 H36        -14.0040    24.3600   -16.2600 hc         1 TJW       0.039200
     82 H37        -14.9330    22.7000   -17.8400 hc         1 TJW       0.038450
     83 H38        -14.8190    21.9890   -16.2370 hc         1 TJW       0.038450
     84 H39        -14.0120    20.4230   -17.9960 hc         1 TJW       0.042700
     85 H40        -12.7270    20.8210   -16.8650 hc         1 TJW       0.042700
     86 H41        -16.8840    11.7550   -21.4190 hn         1 TJW       0.313500
     87 H42        -22.6640    11.6670   -21.0960 hn         1 TJW       0.499000
     88 H43        -21.4960    12.1550   -22.2600 hn         1 TJW       0.499000
     89 H44        -13.2440    18.0340   -22.4150 hn         1 TJW       0.336500
     90 H45        -13.2240    22.1890   -21.8460 hn         1 TJW       0.317500
     91 C02        -14.9590    18.0320   -21.2840 c          1 TJW       0.613700
     92 O28        -11.6140    19.7340   -22.9960 o          1 TJW      -0.610100
@<TRIPOS>BOND
     1     1     7 2   
     2     1    36 1   
     3     1    37 1   
     4     2     5 ar  
     5     2     8 ar  
     6     2    36 1   
     7     3     8 ar  
     8     3     9 ar  
     9     3    46 1   
    10     4     5 ar  
    11     4     9 ar  
    12     4    47 1   
    13     5    48 1   
    14     6    10 1   
    15     6    39 1   
    16     6    92 2   
    17     7    18 1   
    18     7    19 1   
    19     8    49 1   
    20     9    50 1   
    21    10    26 1   
    22    10    38 1   
    23    10    51 1   
    24    11    12 ar  
    25    11    16 ar  
    26    11    91 1   
    27    12    13 ar  
    28    12    52 1   
    29    13    14 ar  
    30    13    53 1   
    31    14    15 ar  
    32    14    17 1   
    33    15    16 ar  
    34    15    54 1   
    35    16    55 1   
    36    17    34 1   
    37    17    56 1   
    38    17    57 1   
    39    18    34 1   
    40    18    42 2   
    41    19    35 2   
    42    19    58 1   
    43    20    21 1   
    44    20    24 1   
    45    20    39 1   
    46    20    59 1   
    47    21    22 1   
    48    21    60 1   
    49    21    61 1   
    50    22    23 1   
    51    22    62 1   
    52    22    63 1   
    53    23    40 1   
    54    23    64 1   
    55    23    65 1   
    56    24    40 1   
    57    24    66 1   
    58    24    67 1   
    59    25    45 1   
    60    25    68 1   
    61    25    69 1   
    62    25    70 1   
    63    26    27 1   
    64    26    71 1   
    65    26    72 1   
    66    27    28 1   
    67    27    73 1   
    68    27    74 1   
    69    28    29 1   
    70    28    33 1   
    71    28    75 1   
    72    29    30 1   
    73    29    76 1   
    74    29    77 1   
    75    30    31 1   
    76    30    78 1   
    77    30    79 1   
    78    31    32 1   
    79    31    80 1   
    80    31    81 1   
    81    32    33 1   
    82    32    82 1   
    83    32    83 1   
    84    33    84 1   
    85    33    85 1   
    86    34    86 1   
    87    35    36 1   
    88    37    87 1   
    89    37    88 1   
    90    38    89 1   
    91    38    91 1   
    92    39    90 1   
    93    40    45 1   
    94    41    91 2   
    95    43    45 2   
    96    44    45 2   
@<TRIPOS>SUBSTRUCTURE
     1 TJW         1 TEMP              0 ****  ****    0 ROOT
