@<TRIPOS>MOLECULE
TJW
   92    96     1     0     0
SMALL
No Charge or Current Charge


@<TRIPOS>ATOM
      1 C17        -20.4790    10.4500   -20.9290 cc         1 TJW       0.345000
      2 C19        -20.3430     8.7710   -19.1170 ca         1 TJW       0.021800
      3 C21        -22.0030     7.2150   -18.2290 ca         1 TJW      -0.097500
      4 C23        -19.6520     6.5870   -18.2710 ca         1 TJW      -0.097500
      5 C24        -19.3300     7.8300   -18.8440 ca         1 TJW      -0.110000
      6 C27        -12.9040    20.6400   -22.0460 c          1 TJW       0.593100
      7 C13        -19.9530    11.6970   -21.0230 cd         1 TJW      -0.379600
      8 C20        -21.6820     8.4580   -18.8020 ca         1 TJW      -0.110000
      9 C22        -20.9890     6.2790   -17.9650 ca         1 TJW      -0.108000
     10 C26        -14.1010    20.6060   -21.0490 c3         1 TJW       0.035700
     11 C03        -17.1660    18.2930   -21.6100 ca         1 TJW      -0.146600
     12 C04        -16.5690    17.2620   -22.3770 ca         1 TJW      -0.071500
     13 C05        -17.3320    16.1670   -22.8200 ca         1 TJW      -0.108000
     14 C06        -18.7000    16.0760   -22.5110 ca         1 TJW      -0.092300
     15 C07        -19.3000    17.0930   -21.7480 ca         1 TJW      -0.108000
     16 C08        -18.5420    18.1890   -21.3020 ca         1 TJW      -0.071500
     17 C09        -19.5190    14.8870   -22.9870 c3         1 TJW       0.144300
     18 C11        -20.1400    12.6080   -22.1580 c          1 TJW       0.665700
     19 C14        -19.2150    11.9180   -19.8300 cd         1 TJW       0.310900
     20 C30        -11.0740    22.1230   -22.9830 c6         1 TJW       0.106700
     21 C31        -10.9390    23.6470   -23.2100 c6         1 TJW      -0.083400
     22 C32         -9.6560    23.9580   -24.0130 c6         1 TJW      -0.074400
     23 C33         -8.4080    23.3630   -23.3210 c6         1 TJW       0.206800
     24 C35         -9.7760    21.5810   -22.3160 c6         1 TJW       0.190800
     25 C39         -5.9540    21.3130   -23.8570 c3         1 TJW      -0.348100
     26 C40        -13.6470    20.3750   -19.5780 c3         1 TJW      -0.088400
     27 C41        -12.6680    21.4260   -18.9890 c3         1 TJW      -0.074400
     28 C42        -13.1580    22.9090   -18.9700 c6         1 TJW      -0.060700
     29 C43        -12.0170    23.8570   -18.5060 c6         1 TJW      -0.074900
     30 C44        -12.4730    25.3360   -18.4950 c6         1 TJW      -0.072900
     31 C45        -13.7290    25.5260   -17.6110 c6         1 TJW      -0.075400
     32 C46        -14.8750    24.5910   -18.0650 c6         1 TJW      -0.072900
     33 C47        -14.4210    23.1090   -18.0820 c6         1 TJW      -0.074900
     34 N10        -19.4920    13.8070   -22.0050 ns         1 TJW      -0.497900
     35 N15        -19.2410    10.8990   -18.9870 nc         1 TJW      -0.510800
     36 N16        -20.0200    10.0060   -19.6860 na         1 TJW       0.149000
     37 N18        -21.2470     9.7310   -21.8010 nv         1 TJW      -1.077000
     38 N25        -15.0470    19.5410   -21.4510 ns         1 TJW      -0.498900
     39 N29        -12.2570    21.8510   -22.1520 ns         1 TJW      -0.499900
     40 N34         -8.5540    21.8990   -23.1070 n3         1 TJW      -0.770500
     41 O01        -16.8980    20.3780   -20.4450 o          1 TJW      -0.615100
     42 O12        -20.8040    12.3500   -23.1520 o          1 TJW      -0.664100
     43 O37         -6.6840    21.8330   -21.3420 o          1 TJW      -0.550000
     44 O38         -7.4540    19.6820   -22.4630 o          1 TJW      -0.550000
     45 S36         -7.1350    21.1110   -22.5350 s6         1 TJW       1.227100
     46 H1         -23.0370     6.9780   -17.9880 ha         1 TJW       0.120000
     47 H2         -18.8660     5.8630   -18.0640 ha         1 TJW       0.120000
     48 H3         -18.2930     8.0630   -19.0780 ha         1 TJW       0.127500
     49 H4         -22.4710     9.1810   -18.9960 ha         1 TJW       0.127500
     50 H5         -21.2380     5.3170   -17.5210 ha         1 TJW       0.119000
     51 H6         -14.6190    21.5710   -21.1250 h1         1 TJW       0.085700
     52 H7         -15.5150    17.2890   -22.6400 ha         1 TJW       0.125500
     53 H8         -16.8540    15.3840   -23.4060 ha         1 TJW       0.123000
     54 H9         -20.3570    17.0340   -21.4960 ha         1 TJW       0.123000
     55 H10        -19.0320    18.9620   -20.7130 ha         1 TJW       0.125500
     56 H11        -20.5600    15.1940   -23.1550 h1         1 TJW       0.069700
     57 H12        -19.1190    14.5150   -23.9400 h1         1 TJW       0.069700
     58 H13        -18.6580    12.8030   -19.5500 h4         1 TJW       0.034100
     59 H14        -11.2010    21.6250   -23.9560 h1         1 TJW       0.095700
     60 H15        -10.9060    24.1710   -22.2450 hc         1 TJW       0.051200
     61 H16        -11.8180    24.0270   -23.7490 hc         1 TJW       0.051200
     62 H17         -9.5360    25.0440   -24.1250 hc         1 TJW       0.054700
     63 H18         -9.7410    23.5450   -25.0280 hc         1 TJW       0.054700
     64 H19         -7.5360    23.5850   -23.9520 h1         1 TJW       0.052200
     65 H20         -8.2500    23.8780   -22.3610 h1         1 TJW       0.052200
     66 H21         -9.8890    20.4930   -22.2020 h1         1 TJW       0.064700
     67 H22         -9.6940    21.9990   -21.3010 h1         1 TJW       0.064700
     68 H23         -5.0720    20.7200   -23.5980 h1         1 TJW       0.104033
     69 H24         -6.4260    20.9460   -24.7740 h1         1 TJW       0.104033
     70 H25         -5.7040    22.3750   -23.9310 h1         1 TJW       0.104033
     71 H26        -14.5320    20.3170   -18.9330 hc         1 TJW       0.059700
     72 H27        -13.1680    19.3900   -19.5140 hc         1 TJW       0.059700
     73 H28        -12.4280    21.1180   -17.9640 hc         1 TJW       0.047700
     74 H29        -11.7180    21.3570   -19.5330 hc         1 TJW       0.047700
     75 H30        -13.4190    23.1820   -20.0000 hc         1 TJW       0.027700
     76 H31        -11.6770    23.5700   -17.5010 hc         1 TJW       0.042700
     77 H32        -11.1470    23.7500   -19.1700 hc         1 TJW       0.042700
     78 H33        -11.6580    25.9750   -18.1260 hc         1 TJW       0.038450
     79 H34        -12.6880    25.6660   -19.5210 hc         1 TJW       0.038450
     80 H35        -13.4770    25.3210   -16.5610 hc         1 TJW       0.039200
     81 H36        -14.0610    26.5720   -17.6540 hc         1 TJW       0.039200
     82 H37        -15.2160    24.8840   -19.0670 hc         1 TJW       0.038450
     83 H38        -15.7380    24.7070   -17.3960 hc         1 TJW       0.038450
     84 H39        -15.2490    22.4900   -18.4510 hc         1 TJW       0.042700
     85 H40        -14.2140    22.7750   -17.0560 hc         1 TJW       0.042700
     86 H41        -18.9640    13.9450   -21.1550 hn         1 TJW       0.313500
     87 H42        -21.6840     8.8590   -21.5080 hn         1 TJW       0.499000
     88 H43        -21.6110    10.2000   -22.6310 hn         1 TJW       0.499000
     89 H44        -14.6900    18.7850   -22.0230 hn         1 TJW       0.336500
     90 H45        -12.6170    22.6050   -21.5810 hn         1 TJW       0.317500
     91 C02        -16.3810    19.4910   -21.1110 c          1 TJW       0.613700
     92 O28        -12.5620    19.6690   -22.7100 o          1 TJW      -0.610100
@<TRIPOS>BOND
     1     1     7 2   
     2     1    36 1   
     3     1    37 1   
     4     2     5 ar  
     5     2     8 ar  
     6     2    36 1   
     7     3     8 ar  
     8     3     9 ar  
     9     3    46 1   
    10     4     5 ar  
    11     4     9 ar  
    12     4    47 1   
    13     5    48 1   
    14     6    10 1   
    15     6    39 1   
    16     6    92 2   
    17     7    18 1   
    18     7    19 1   
    19     8    49 1   
    20     9    50 1   
    21    10    26 1   
    22    10    38 1   
    23    10    51 1   
    24    11    12 ar  
    25    11    16 ar  
    26    11    91 1   
    27    12    13 ar  
    28    12    52 1   
    29    13    14 ar  
    30    13    53 1   
    31    14    15 ar  
    32    14    17 1   
    33    15    16 ar  
    34    15    54 1   
    35    16    55 1   
    36    17    34 1   
    37    17    56 1   
    38    17    57 1   
    39    18    34 1   
    40    18    42 2   
    41    19    35 2   
    42    19    58 1   
    43    20    21 1   
    44    20    24 1   
    45    20    39 1   
    46    20    59 1   
    47    21    22 1   
    48    21    60 1   
    49    21    61 1   
    50    22    23 1   
    51    22    62 1   
    52    22    63 1   
    53    23    40 1   
    54    23    64 1   
    55    23    65 1   
    56    24    40 1   
    57    24    66 1   
    58    24    67 1   
    59    25    45 1   
    60    25    68 1   
    61    25    69 1   
    62    25    70 1   
    63    26    27 1   
    64    26    71 1   
    65    26    72 1   
    66    27    28 1   
    67    27    73 1   
    68    27    74 1   
    69    28    29 1   
    70    28    33 1   
    71    28    75 1   
    72    29    30 1   
    73    29    76 1   
    74    29    77 1   
    75    30    31 1   
    76    30    78 1   
    77    30    79 1   
    78    31    32 1   
    79    31    80 1   
    80    31    81 1   
    81    32    33 1   
    82    32    82 1   
    83    32    83 1   
    84    33    84 1   
    85    33    85 1   
    86    34    86 1   
    87    35    36 1   
    88    37    87 1   
    89    37    88 1   
    90    38    89 1   
    91    38    91 1   
    92    39    90 1   
    93    40    45 1   
    94    41    91 2   
    95    43    45 2   
    96    44    45 2   
@<TRIPOS>SUBSTRUCTURE
     1 TJW         1 TEMP              0 ****  ****    0 ROOT
