@<TRIPOS>MOLECULE
TJX
   20    21     1     0     0
SMALL
abcg2


@<TRIPOS>ATOM
      1 N1          -9.5010    -8.9960   -21.7630 na         1 TJX       0.118100
      2 C4          -8.7620    -8.0810   -22.4850 cc         1 TJX      -0.283100
      3 C5          -9.4460    -6.8970   -22.3740 cd         1 TJX      -0.032400
      4 C6         -10.6060    -8.3160   -21.2450 cc         1 TJX      -0.077000
      5 C7         -11.5350    -9.0320   -20.4620 cc         1 TJX      -0.056000
      6 N          -13.4050   -10.4330   -18.8400 n8         1 TJX      -1.002200
      7 C1         -11.3420   -10.3660   -20.2210 cd         1 TJX      -0.081300
      8 C2         -10.1940   -11.0120   -20.7700 cd         1 TJX      -0.147000
      9 C3          -9.2980   -10.3300   -21.5270 cc         1 TJX      -0.105000
     10 N2         -10.5780    -7.0350   -21.6140 nd         1 TJX      -0.291600
     11 H1          -7.8550    -8.3560   -22.9930 h4         1 TJX       0.229000
     12 H2          -9.1730    -5.9480   -22.8080 h4         1 TJX       0.226000
     13 H3         -12.3930    -8.5060   -20.0700 ha         1 TJX       0.156000
     14 H4         -14.0460   -11.0660   -18.3760 hn         1 TJX       0.400500
     15 H5         -13.0700    -9.7930   -18.1250 hn         1 TJX       0.400500
     16 H7         -12.7030   -11.9840   -20.0320 h1         1 TJX       0.038200
     17 H8         -11.6950   -11.7140   -18.6260 h1         1 TJX       0.038200
     18 H9         -10.0270   -12.0650   -20.5860 ha         1 TJX       0.126000
     19 H10         -8.4150   -10.7700   -21.9680 h4         1 TJX       0.142000
     20 C          -12.2900   -11.1970   -19.3930 c3         1 TJX       0.202100
@<TRIPOS>BOND
     1     1     2 1   
     2     1     4 1   
     3     1     9 1   
     4     2     3 2   
     5     2    11 1   
     6     3    10 1   
     7     3    12 1   
     8     4     5 1   
     9     4    10 2   
    10     5     7 2   
    11     5    13 1   
    12     6    14 1   
    13     6    15 1   
    14     6    20 1   
    15     7     8 1   
    16     7    20 1   
    17     8     9 2   
    18     8    18 1   
    19     9    19 1   
    20    16    20 1   
    21    17    20 1   
@<TRIPOS>SUBSTRUCTURE
     1 TJX         1 TEMP              0 ****  ****    0 ROOT
