@<TRIPOS>MOLECULE
TJX
   20    21     1     0     0
SMALL
No Charge or Current Charge


@<TRIPOS>ATOM
      1 N1          -9.5250    -8.8930   -21.6460 na         1 TJX       0.118100
      2 C4          -8.6490    -8.0840   -22.3050 cc         1 TJX      -0.283100
      3 C5          -9.4400    -6.9930   -22.6190 cd         1 TJX      -0.032400
      4 C6         -10.7620    -8.3420   -21.5610 cc         1 TJX      -0.077000
      5 C7         -11.8150    -9.0370   -20.9070 cc         1 TJX      -0.056000
      6 N          -12.7590   -10.6530   -18.2480 n8         1 TJX      -1.002200
      7 C1         -11.5680   -10.2790   -20.3590 cd         1 TJX      -0.081300
      8 C2         -10.2200   -10.8070   -20.4870 cd         1 TJX      -0.147000
      9 C3          -9.1740   -10.1370   -21.1250 cc         1 TJX      -0.105000
     10 N2         -10.7450    -7.1620   -22.1550 nd         1 TJX      -0.291600
     11 H1          -7.6080    -8.3210   -22.4890 h4         1 TJX       0.229000
     12 H2          -9.1440    -6.0920   -23.1550 h4         1 TJX       0.226000
     13 H3         -12.7980    -8.5790   -20.8470 ha         1 TJX       0.156000
     14 H4         -13.4280   -11.2700   -17.7720 hn         1 TJX       0.400500
     15 H5         -11.8680   -10.8520   -17.7780 hn         1 TJX       0.400500
     16 H7         -13.6120   -10.9110   -20.1600 h1         1 TJX       0.038200
     17 H8         -12.4080   -12.1420   -19.6990 h1         1 TJX       0.038200
     18 H9         -10.0070   -11.7830   -20.0620 ha         1 TJX       0.126000
     19 H10         -8.1570   -10.4880   -21.2460 h4         1 TJX       0.142000
     20 C          -12.6460   -11.0700   -19.6580 c3         1 TJX       0.202100
@<TRIPOS>BOND
     1     1     2 1   
     2     1     4 1   
     3     1     9 1   
     4     2     3 2   
     5     2    11 1   
     6     3    10 1   
     7     3    12 1   
     8     4     5 1   
     9     4    10 2   
    10     5     7 2   
    11     5    13 1   
    12     6    14 1   
    13     6    15 1   
    14     6    20 1   
    15     7     8 1   
    16     7    20 1   
    17     8     9 2   
    18     8    18 1   
    19     9    19 1   
    20    16    20 1   
    21    17    20 1   
@<TRIPOS>SUBSTRUCTURE
     1 TJX         1 TEMP              0 ****  ****    0 ROOT
