@<TRIPOS>MOLECULE
TJY
   19    20     1     0     0
SMALL
bcc


@<TRIPOS>ATOM
      1 O1           5.6640     1.3490   -12.5070 o          1 TJY      -0.648500
      2 O2           7.0710     5.1280   -16.1160 o          1 TJY      -0.792800
      3 O3           8.4340     5.2160   -14.3320 o          1 TJY      -0.792800
      4 C3           7.6610     4.6650   -15.1270 c          1 TJY       0.852300
      5 C2           7.3750     3.1940   -14.8520 cc         1 TJY       0.492900
      6 N1           6.6660     2.9240   -13.8020 nd         1 TJY      -0.641100
      7 C5           7.8910     2.1800   -15.7380 ca         1 TJY      -0.226900
      8 C6           8.6610     2.4420   -16.8800 ca         1 TJY      -0.018000
      9 C7           9.1590     1.4060   -17.6370 ca         1 TJY      -0.203000
     10 C8           8.8890     0.0830   -17.2660 ca         1 TJY      -0.084000
     11 C9           8.1300    -0.2030   -16.1530 ca         1 TJY      -0.215000
     12 C4           7.6260     0.8510   -15.3850 ca         1 TJY       0.097600
     13 N2           6.8660     0.6280   -14.2720 ns         1 TJY      -0.476100
     14 C1           6.3540     1.6210   -13.4730 c          1 TJY       0.828900
     15 H2           8.8570     3.4650   -17.1710 ha         1 TJY       0.167000
     16 H3           9.7530     1.6100   -18.5170 ha         1 TJY       0.123000
     17 H4           9.2820    -0.7310   -17.8610 ha         1 TJY       0.111000
     18 H5           7.9240    -1.2280   -15.8700 ha         1 TJY       0.120000
     19 H6           6.6550    -0.3260   -14.0110 hn         1 TJY       0.306500
@<TRIPOS>BOND
     1     1    14 2   
     2     2     4 1   
     3     3     4 1   
     4     4     5 1   
     5     5     6 2   
     6     5     7 1   
     7     6    14 1   
     8     7     8 ar  
     9     7    12 ar  
    10     8     9 ar  
    11     8    15 1   
    12     9    10 ar  
    13     9    16 1   
    14    10    11 ar  
    15    10    17 1   
    16    11    12 ar  
    17    11    18 1   
    18    12    13 1   
    19    13    14 1   
    20    13    19 1   
@<TRIPOS>SUBSTRUCTURE
     1 TJY         1 TEMP              0 ****  ****    0 ROOT
