@<TRIPOS>MOLECULE
TJY
   19    20     1     0     0
SMALL
No Charge or Current Charge


@<TRIPOS>ATOM
      1 O1           5.8710     1.2810   -12.3650 o          1 TJY      -0.573000
      2 O2           8.2410     5.2040   -16.0320 o          1 TJY      -0.687500
      3 O3           7.1880     5.5850   -14.2330 o          1 TJY      -0.687500
      4 C3           7.6370     4.7810   -15.0520 c          1 TJY       0.641700
      5 C2           7.4240     3.2660   -14.8160 cc         1 TJY       0.492900
      6 N1           6.7500     2.8870   -13.7140 nd         1 TJY      -0.641100
      7 C5           7.9220     2.1890   -15.7400 ca         1 TJY      -0.226900
      8 C6           8.6470     2.4100   -16.9430 ca         1 TJY       0.000000
      9 C7           9.0700     1.3300   -17.7400 ca         1 TJY      -0.185000
     10 C8           8.7840     0.0100   -17.3660 ca         1 TJY      -0.066000
     11 C9           8.0710    -0.2270   -16.1850 ca         1 TJY      -0.197000
     12 C4           7.6520     0.8520   -15.3950 ca         1 TJY       0.097600
     13 N2           6.9450     0.6230   -14.2230 ns         1 TJY      -0.522600
     14 C1           6.4850     1.5650   -13.3750 c          1 TJY       0.686400
     15 H2           8.9060     3.4000   -17.2980 ha         1 TJY       0.149000
     16 H3           9.6230     1.5210   -18.6560 ha         1 TJY       0.105000
     17 H4           9.1130    -0.8210   -17.9860 ha         1 TJY       0.093000
     18 H5           7.8450    -1.2480   -15.8880 ha         1 TJY       0.102000
     19 H6           6.7450    -0.3350   -13.9650 hn         1 TJY       0.420000
@<TRIPOS>BOND
     1     1    14 2   
     2     2     4 1   
     3     3     4 1   
     4     4     5 1   
     5     5     6 2   
     6     5     7 1   
     7     6    14 1   
     8     7     8 ar  
     9     7    12 ar  
    10     8     9 ar  
    11     8    15 1   
    12     9    10 ar  
    13     9    16 1   
    14    10    11 ar  
    15    10    17 1   
    16    11    12 ar  
    17    11    18 1   
    18    12    13 1   
    19    13    14 1   
    20    13    19 1   
@<TRIPOS>SUBSTRUCTURE
     1 TJY         1 TEMP              0 ****  ****    0 ROOT
