@<TRIPOS>MOLECULE
TJZ
   92    97     1     0     0
SMALL
abcg2


@<TRIPOS>ATOM
      1 C1          16.8020    29.5120    17.1360 c3         1 TJZ       0.033700
      2 N1          17.2090    30.6740    15.0530 ns         1 TJZ      -0.496900
      3 C2          16.7020    29.5520    15.5980 c          1 TJZ       0.576100
      4 C3          17.0430    31.0190    13.6520 c6         1 TJZ       0.085700
      5 C4          15.6840    31.7030    13.4440 c6         1 TJZ       0.189800
      6 C5          15.3150    29.8920    10.4800 c3         1 TJZ      -0.385100
      7 C6          16.5960    33.0060    11.5470 c6         1 TJZ       0.212800
      8 C7          17.9600    32.3490    11.7290 c6         1 TJZ      -0.100400
      9 C8          18.1800    31.9200    13.1800 c6         1 TJZ      -0.083400
     10 C9          16.7840    28.0890    17.6740 c3         1 TJZ      -0.074400
     11 C10         18.0410    27.2840    17.3020 c3         1 TJZ      -0.067400
     12 C11         19.1050    27.2010    18.4010 c6         1 TJZ      -0.065700
     13 C12         19.6380    28.5720    18.8380 c6         1 TJZ      -0.071900
     14 C13         20.7200    28.4500    19.9140 c6         1 TJZ      -0.072900
     15 C14         21.8660    27.5430    19.4630 c6         1 TJZ      -0.074400
     16 C15         21.3450    26.1710    19.0340 c6         1 TJZ      -0.072900
     17 C16         20.2640    26.2990    17.9590 c6         1 TJZ      -0.071900
     18 C17         14.5340    32.2700    18.4380 ca         1 TJZ      -0.153600
     19 C18         14.6880    33.4250    19.2020 ca         1 TJZ      -0.066000
     20 C19         13.5850    34.0550    19.7630 ca         1 TJZ      -0.109500
     21 C20         13.2470    31.7690    18.2230 ca         1 TJZ      -0.066000
     22 C21         12.1480    32.4100    18.7730 ca         1 TJZ      -0.109500
     23 C22         12.3020    33.5560    19.5540 ca         1 TJZ      -0.079300
     24 C23         11.0640    34.2190    20.1200 c3         1 TJZ       0.273100
     25 C24         11.5030    36.4910    20.9850 ca         1 TJZ       0.449900
     26 C25         11.6580    38.3020    19.5650 ca         1 TJZ       0.192900
     27 C26         11.9220    38.7300    21.7270 ca         1 TJZ       0.176500
     28 C27         11.7300    37.3820    22.0630 ca         1 TJZ      -0.395900
     29 C28         11.8120    37.3410    23.4780 cc         1 TJZ       0.390800
     30 O3          16.1760    28.6520    14.9470 o          1 TJZ      -0.604100
     31 N2          15.5080    32.1570    12.0620 n3         1 TJZ      -0.779500
     32 S           14.5050    31.3680    11.0500 s6         1 TJZ       1.252100
     33 O2          14.3030    32.2210     9.8980 o          1 TJZ      -0.545000
     34 O1          13.3510    30.9540    11.8180 o          1 TJZ      -0.545000
     35 N           15.6940    30.2870    17.6840 ns         1 TJZ      -0.501900
     36 C           15.7540    31.6220    17.8670 c          1 TJZ       0.615700
     37 O           16.7640    32.2780    17.5890 o          1 TJZ      -0.629100
     38 N3          11.3060    35.1770    21.1790 nu         1 TJZ      -0.923100
     39 N6          12.0350    38.5430    23.9690 nd         1 TJZ      -0.509100
     40 N7          12.1100    39.4020    22.9020 na         1 TJZ       0.059100
     41 N5          11.8860    39.2340    20.4820 nb         1 TJZ      -0.220000
     42 N4          11.4780    36.9860    19.7360 nb         1 TJZ      -0.295000
     43 C29         12.3110    40.7870    23.1190 ca         1 TJZ       0.025800
     44 C34         13.0600    41.5360    22.2140 ca         1 TJZ      -0.101000
     45 C33         13.2480    42.8940    22.4430 ca         1 TJZ      -0.102000
     46 C32         12.7080    43.5010    23.5730 ca         1 TJZ      -0.112000
     47 C31         11.9700    42.7410    24.4760 ca         1 TJZ      -0.102000
     48 C30         11.7640    41.3860    24.2510 ca         1 TJZ      -0.101000
     49 H1          17.7200    30.0190    17.4310 h1         1 TJZ       0.086700
     50 H2          17.4910    31.4060    15.6950 hn         1 TJZ       0.340500
     51 H3          17.0590    30.0880    13.0850 h1         1 TJZ       0.072700
     52 H4          15.6270    32.5820    14.0940 h1         1 TJZ       0.076200
     53 H5          14.8710    31.0340    13.7120 h1         1 TJZ       0.076200
     54 H6          15.5260    29.2560    11.3380 h1         1 TJZ       0.101033
     55 H7          14.6300    29.3920     9.7960 h1         1 TJZ       0.101033
     56 H8          16.2320    30.1730     9.9670 h1         1 TJZ       0.101033
     57 H9          16.3960    33.2330    10.5040 h1         1 TJZ       0.071700
     58 H10         16.5560    33.9450    12.1070 h1         1 TJZ       0.071700
     59 H11         18.0380    31.4790    11.0710 hc         1 TJZ       0.051700
     60 H12         18.7350    33.0560    11.4240 hc         1 TJZ       0.051700
     61 H13         19.1320    31.3970    13.2870 hc         1 TJZ       0.055200
     62 H14         18.2210    32.8070    13.8230 hc         1 TJZ       0.055200
     63 H15         16.6780    28.1370    18.7600 hc         1 TJZ       0.056700
     64 H16         15.8930    27.5930    17.2870 hc         1 TJZ       0.056700
     65 H17         17.7460    26.2650    17.0400 hc         1 TJZ       0.049700
     66 H18         18.4970    27.7040    16.3990 hc         1 TJZ       0.049700
     67 H19         18.6370    26.7360    19.2790 hc         1 TJZ       0.043700
     68 H20         20.0500    29.0870    17.9610 hc         1 TJZ       0.038450
     69 H21         18.8220    29.1930    19.2140 hc         1 TJZ       0.038450
     70 H22         21.1010    29.4420    20.1730 hc         1 TJZ       0.038700
     71 H23         20.2720    28.0370    20.8250 hc         1 TJZ       0.038700
     72 H24         22.6020    27.4370    20.2650 hc         1 TJZ       0.038700
     73 H25         22.3830    28.0110    18.6170 hc         1 TJZ       0.038700
     74 H26         20.9250    25.6560    19.9060 hc         1 TJZ       0.038700
     75 H27         22.1670    25.5500    18.6670 hc         1 TJZ       0.038700
     76 H28         19.8760    25.3110    17.6920 hc         1 TJZ       0.038450
     77 H29         20.7080    26.7200    17.0490 hc         1 TJZ       0.038450
     78 H30         15.6820    33.8220    19.3640 ha         1 TJZ       0.127000
     79 H31         13.7300    34.9370    20.3720 ha         1 TJZ       0.122000
     80 H32         13.0900    30.8910    17.6100 ha         1 TJZ       0.127000
     81 H33         11.1550    32.0140    18.5940 ha         1 TJZ       0.122000
     82 H34         10.5320    34.7280    19.3160 h1         1 TJZ       0.075200
     83 H35         10.3970    33.4520    20.5140 h1         1 TJZ       0.075200
     84 H36         11.6140    38.6470    18.5370 h5         1 TJZ       0.051100
     85 H37         11.7250    36.4950    24.1420 h4         1 TJZ       0.047800
     86 H38         14.8600    29.7860    17.9460 hn         1 TJZ       0.327500
     87 H39         11.3910    34.8230    22.1180 hn         1 TJZ       0.500000
     88 H40         13.4900    41.0600    21.3460 ha         1 TJZ       0.135500
     89 H41         13.8300    43.4750    21.7400 ha         1 TJZ       0.117500
     90 H42         12.8620    44.5580    23.7490 ha         1 TJZ       0.116000
     91 H43         11.5450    43.2050    25.3570 ha         1 TJZ       0.117500
     92 H44         11.1840    40.7920    24.9430 ha         1 TJZ       0.135500
@<TRIPOS>BOND
     1     1     3 1   
     2     1    10 1   
     3     1    35 1   
     4     1    49 1   
     5     2     3 1   
     6     2     4 1   
     7     2    50 1   
     8     3    30 2   
     9     4     5 1   
    10     4     9 1   
    11     4    51 1   
    12     5    31 1   
    13     5    52 1   
    14     5    53 1   
    15     6    32 1   
    16     6    54 1   
    17     6    55 1   
    18     6    56 1   
    19     7     8 1   
    20     7    31 1   
    21     7    57 1   
    22     7    58 1   
    23     8     9 1   
    24     8    59 1   
    25     8    60 1   
    26     9    61 1   
    27     9    62 1   
    28    10    11 1   
    29    10    63 1   
    30    10    64 1   
    31    11    12 1   
    32    11    65 1   
    33    11    66 1   
    34    12    13 1   
    35    12    17 1   
    36    12    67 1   
    37    13    14 1   
    38    13    68 1   
    39    13    69 1   
    40    14    15 1   
    41    14    70 1   
    42    14    71 1   
    43    15    16 1   
    44    15    72 1   
    45    15    73 1   
    46    16    17 1   
    47    16    74 1   
    48    16    75 1   
    49    17    76 1   
    50    17    77 1   
    51    18    19 ar  
    52    18    21 ar  
    53    18    36 1   
    54    19    20 ar  
    55    19    78 1   
    56    20    23 ar  
    57    20    79 1   
    58    21    22 ar  
    59    21    80 1   
    60    22    23 ar  
    61    22    81 1   
    62    23    24 1   
    63    24    38 1   
    64    24    82 1   
    65    24    83 1   
    66    25    28 ar  
    67    25    38 1   
    68    25    42 ar  
    69    26    41 ar  
    70    26    42 ar  
    71    26    84 1   
    72    27    28 ar  
    73    27    40 1   
    74    27    41 ar  
    75    28    29 1   
    76    29    39 2   
    77    29    85 1   
    78    31    32 1   
    79    32    33 2   
    80    32    34 2   
    81    35    36 1   
    82    35    86 1   
    83    36    37 2   
    84    38    87 1   
    85    39    40 1   
    86    40    43 1   
    87    43    44 ar  
    88    43    48 ar  
    89    44    45 ar  
    90    44    88 1   
    91    45    46 ar  
    92    45    89 1   
    93    46    47 ar  
    94    46    90 1   
    95    47    48 ar  
    96    47    91 1   
    97    48    92 1   
@<TRIPOS>SUBSTRUCTURE
     1 TJZ         1 TEMP              0 ****  ****    0 ROOT
