@<TRIPOS>MOLECULE
TJZ
   92    97     1     0     0
SMALL
No Charge or Current Charge


@<TRIPOS>ATOM
      1 C1          16.8440    30.7330    16.6190 c3         1 TJZ       0.033700
      2 N1          15.8360    30.6980    14.3310 ns         1 TJZ      -0.496900
      3 C2          16.8870    30.2810    15.1230 c          1 TJZ       0.576100
      4 C3          15.6790    30.4160    12.8970 c6         1 TJZ       0.085700
      5 C4          15.1870    28.9510    12.6570 c6         1 TJZ       0.189800
      6 C5          17.5920    28.9470    10.5800 c3         1 TJZ      -0.385100
      7 C6          13.8990    29.6200    10.6470 c6         1 TJZ       0.212800
      8 C7          14.4050    31.0760    10.7830 c6         1 TJZ      -0.100400
      9 C8          14.6790    31.4200    12.2690 c6         1 TJZ      -0.083400
     10 C9          16.7320    29.5340    17.6020 c3         1 TJZ      -0.074400
     11 C10         18.0520    28.7630    17.8750 c3         1 TJZ      -0.067400
     12 C11         18.9080    29.2570    19.0870 c6         1 TJZ      -0.065700
     13 C12         19.3450    30.7470    18.9780 c6         1 TJZ      -0.071900
     14 C13         20.2120    31.1830    20.1850 c6         1 TJZ      -0.072900
     15 C14         21.4440    30.2630    20.3580 c6         1 TJZ      -0.074400
     16 C15         21.0120    28.7830    20.4880 c6         1 TJZ      -0.072900
     17 C16         20.1540    28.3440    19.2770 c6         1 TJZ      -0.071900
     18 C17         14.6250    33.8780    17.1150 ca         1 TJZ      -0.153600
     19 C18         14.6580    35.2820    16.9570 ca         1 TJZ      -0.066000
     20 C19         13.5450    36.0720    17.2880 ca         1 TJZ      -0.109500
     21 C20         13.4400    33.2870    17.6210 ca         1 TJZ      -0.066000
     22 C21         12.3300    34.0820    17.9530 ca         1 TJZ      -0.109500
     23 C22         12.3720    35.4790    17.7890 ca         1 TJZ      -0.079300
     24 C23         11.1600    36.3340    18.1500 c3         1 TJZ       0.273100
     25 C24         11.9510    37.3170    20.3700 ca         1 TJZ       0.449900
     26 C25         13.5290    38.9800    20.5480 ca         1 TJZ       0.192900
     27 C26         12.9120    37.9180    22.4700 ca         1 TJZ       0.176500
     28 C27         12.0540    37.1470    21.7440 ca         1 TJZ      -0.395900
     29 C28         11.4010    36.2580    22.6650 cc         1 TJZ       0.390800
     30 O3          17.7970    29.6110    14.6570 o          1 TJZ      -0.604100
     31 N2          14.8690    28.6570    11.2290 n3         1 TJZ      -0.779500
     32 S           16.1160    28.0140    10.2160 s6         1 TJZ       1.252100
     33 O2          15.7390    28.3240     8.8330 o          1 TJZ      -0.545000
     34 O1          16.2940    26.6140    10.6150 o          1 TJZ      -0.545000
     35 N           15.7380    31.6900    16.8740 ns         1 TJZ      -0.501900
     36 C           15.8430    33.0590    16.7400 c          1 TJZ       0.615700
     37 O           16.8710    33.5720    16.3210 o          1 TJZ      -0.629100
     38 N3          11.0880    36.5500    19.6080 nu         1 TJZ      -0.923100
     39 N6          11.8190    36.4540    23.9220 nd         1 TJZ      -0.509100
     40 N7          12.7510    37.4790    23.7740 na         1 TJZ       0.059100
     41 N5          13.6770    38.8630    21.8910 nb         1 TJZ      -0.220000
     42 N4          12.7020    38.2530    19.7570 nb         1 TJZ      -0.295000
     43 C29         13.4470    38.0180    24.8570 ca         1 TJZ       0.025800
     44 C34         14.8560    37.9870    24.8850 ca         1 TJZ      -0.101000
     45 C33         15.5540    38.5350    25.9760 ca         1 TJZ      -0.102000
     46 C32         14.8490    39.1130    27.0450 ca         1 TJZ      -0.112000
     47 C31         13.4440    39.1440    27.0230 ca         1 TJZ      -0.102000
     48 C30         12.7450    38.5970    25.9330 ca         1 TJZ      -0.101000
     49 H1          17.7900    31.2560    16.7990 h1         1 TJZ       0.086700
     50 H2          15.1370    31.2670    14.7920 hn         1 TJZ       0.340500
     51 H3          16.6570    30.5620    12.4210 h1         1 TJZ       0.072700
     52 H4          14.2800    28.8030    13.2610 h1         1 TJZ       0.076200
     53 H5          15.9310    28.2420    13.0500 h1         1 TJZ       0.076200
     54 H6          17.8500    28.7790    11.6290 h1         1 TJZ       0.101033
     55 H7          18.3790    28.5690     9.9200 h1         1 TJZ       0.101033
     56 H8          17.3810    30.0000    10.3710 h1         1 TJZ       0.101033
     57 H9          13.6690    29.3960     9.5950 h1         1 TJZ       0.071700
     58 H10         12.9420    29.5430    11.1850 h1         1 TJZ       0.071700
     59 H11         15.3150    31.2160    10.1850 hc         1 TJZ       0.051700
     60 H12         13.6540    31.7650    10.3740 hc         1 TJZ       0.051700
     61 H13         15.0740    32.4420    12.3480 hc         1 TJZ       0.055200
     62 H14         13.7320    31.4050    12.8270 hc         1 TJZ       0.055200
     63 H15         16.3370    29.8840    18.5650 hc         1 TJZ       0.056700
     64 H16         15.9840    28.8340    17.2080 hc         1 TJZ       0.056700
     65 H17         17.7820    27.7150    18.0550 hc         1 TJZ       0.049700
     66 H18         18.6660    28.7500    16.9670 hc         1 TJZ       0.049700
     67 H19         18.2700    29.1510    19.9760 hc         1 TJZ       0.043700
     68 H20         19.9040    30.9070    18.0450 hc         1 TJZ       0.038450
     69 H21         18.4630    31.3990    18.9350 hc         1 TJZ       0.038450
     70 H22         20.5410    32.2230    20.0520 hc         1 TJZ       0.038700
     71 H23         19.6060    31.1630    21.1010 hc         1 TJZ       0.038700
     72 H24         22.0140    30.5650    21.2470 hc         1 TJZ       0.038700
     73 H25         22.1180    30.3790    19.4980 hc         1 TJZ       0.038700
     74 H26         20.4430    28.6430    21.4170 hc         1 TJZ       0.038700
     75 H27         21.9010    28.1420    20.5670 hc         1 TJZ       0.038700
     76 H28         19.8370    27.3010    19.4170 hc         1 TJZ       0.038450
     77 H29         20.7700    28.3600    18.3680 hc         1 TJZ       0.038450
     78 H30         15.5520    35.7690    16.5720 ha         1 TJZ       0.127000
     79 H31         13.5960    37.1510    17.1560 ha         1 TJZ       0.122000
     80 H32         13.3600    32.2130    17.7660 ha         1 TJZ       0.127000
     81 H33         11.4300    33.6090    18.3410 ha         1 TJZ       0.122000
     82 H34         11.2070    37.2950    17.6170 h1         1 TJZ       0.075200
     83 H35         10.2530    35.8200    17.8000 h1         1 TJZ       0.075200
     84 H36         14.1370    39.7370    20.0550 h5         1 TJZ       0.051100
     85 H37         10.6560    35.4900    22.5030 h4         1 TJZ       0.047800
     86 H38         14.8690    31.3340    17.2540 hn         1 TJZ       0.327500
     87 H39         10.5330    35.8780    20.1350 hn         1 TJZ       0.500000
     88 H40         15.4080    37.5390    24.0630 ha         1 TJZ       0.135500
     89 H41         16.6420    38.5090    25.9930 ha         1 TJZ       0.117500
     90 H42         15.3900    39.5370    27.8880 ha         1 TJZ       0.116000
     91 H43         12.8970    39.5920    27.8510 ha         1 TJZ       0.117500
     92 H44         11.6570    38.6240    25.9210 ha         1 TJZ       0.135500
@<TRIPOS>BOND
     1     1     3 1   
     2     1    10 1   
     3     1    35 1   
     4     1    49 1   
     5     2     3 1   
     6     2     4 1   
     7     2    50 1   
     8     3    30 2   
     9     4     5 1   
    10     4     9 1   
    11     4    51 1   
    12     5    31 1   
    13     5    52 1   
    14     5    53 1   
    15     6    32 1   
    16     6    54 1   
    17     6    55 1   
    18     6    56 1   
    19     7     8 1   
    20     7    31 1   
    21     7    57 1   
    22     7    58 1   
    23     8     9 1   
    24     8    59 1   
    25     8    60 1   
    26     9    61 1   
    27     9    62 1   
    28    10    11 1   
    29    10    63 1   
    30    10    64 1   
    31    11    12 1   
    32    11    65 1   
    33    11    66 1   
    34    12    13 1   
    35    12    17 1   
    36    12    67 1   
    37    13    14 1   
    38    13    68 1   
    39    13    69 1   
    40    14    15 1   
    41    14    70 1   
    42    14    71 1   
    43    15    16 1   
    44    15    72 1   
    45    15    73 1   
    46    16    17 1   
    47    16    74 1   
    48    16    75 1   
    49    17    76 1   
    50    17    77 1   
    51    18    19 ar  
    52    18    21 ar  
    53    18    36 1   
    54    19    20 ar  
    55    19    78 1   
    56    20    23 ar  
    57    20    79 1   
    58    21    22 ar  
    59    21    80 1   
    60    22    23 ar  
    61    22    81 1   
    62    23    24 1   
    63    24    38 1   
    64    24    82 1   
    65    24    83 1   
    66    25    28 ar  
    67    25    38 1   
    68    25    42 ar  
    69    26    41 ar  
    70    26    42 ar  
    71    26    84 1   
    72    27    28 ar  
    73    27    40 1   
    74    27    41 ar  
    75    28    29 1   
    76    29    39 2   
    77    29    85 1   
    78    31    32 1   
    79    32    33 2   
    80    32    34 2   
    81    35    36 1   
    82    35    86 1   
    83    36    37 2   
    84    38    87 1   
    85    39    40 1   
    86    40    43 1   
    87    43    44 ar  
    88    43    48 ar  
    89    44    45 ar  
    90    44    88 1   
    91    45    46 ar  
    92    45    89 1   
    93    46    47 ar  
    94    46    90 1   
    95    47    48 ar  
    96    47    91 1   
    97    48    92 1   
@<TRIPOS>SUBSTRUCTURE
     1 TJZ         1 TEMP              0 ****  ****    0 ROOT
