@<TRIPOS>MOLECULE
TK0
   81    87     1     0     0
SMALL
abcg2


@<TRIPOS>ATOM
      1 C01         49.3170    30.0920    54.6090 c6         1 TK0      -0.076400
      2 C02         49.5220    28.5840    54.3900 c6         1 TK0      -0.164700
      3 C03         48.4330    27.7900    55.1330 c6         1 TK0       0.235800
      4 C05         46.8770    29.6520    55.0190 c6         1 TK0       0.226800
      5 C06         47.8830    30.5670    54.3310 c6         1 TK0      -0.101400
      6 C07         46.2480    27.4400    54.0480 ca         1 TK0       0.441900
      7 C09         45.4830    25.2900    53.6910 ca         1 TK0       0.168900
      8 C11         44.3270    26.9290    52.7190 ca         1 TK0       0.163300
      9 C12         45.2140    27.9140    53.1860 ca         1 TK0      -0.224800
     10 C13         44.9420    29.1880    52.5960 cc         1 TK0      -0.137200
     11 C14         43.8720    29.1880    51.7510 cd         1 TK0      -0.007600
     12 C15         43.3730    30.2930    50.9360 ca         1 TK0      -0.015800
     13 C16         44.1790    31.4130    50.6900 ca         1 TK0      -0.095000
     14 C17         43.7310    32.4450    49.8820 ca         1 TK0      -0.104000
     15 C18         42.4710    32.4000    49.2820 ca         1 TK0      -0.080300
     16 C19         41.6630    31.2930    49.5380 ca         1 TK0      -0.104000
     17 C20         42.1020    30.2590    50.3500 ca         1 TK0      -0.095000
     18 C21         42.0430    33.4660    48.3130 c3         1 TK0      -0.053100
     19 C22         42.4510    33.0880    46.8780 c3         1 TK0       0.105000
     20 C24         42.9240    35.1600    45.6410 c          1 TK0       0.594300
     21 C25         42.4370    36.1870    44.6880 ce         1 TK0      -0.260200
     22 C26         41.1520    36.4740    44.4460 cf         1 TK0      -0.115200
     23 C27         40.6420    37.5080    43.5470 ca         1 TK0      -0.121800
     24 C28         41.4650    38.2960    42.7290 ca         1 TK0       0.357900
     25 C30         39.6870    39.4400    41.8530 ca         1 TK0       0.344900
     26 C31         38.7810    38.7160    42.6150 ca         1 TK0      -0.164000
     27 C32         39.2660    37.7390    43.4710 ca         1 TK0      -0.059000
     28 C35         49.5840    28.0760    52.9460 c          1 TK0       0.602100
     29 C38         49.4530    28.6290    50.5390 c3         1 TK0       0.150300
     30 C39         48.0660    28.4560    49.9630 ca         1 TK0      -0.122300
     31 C40         47.3260    27.2910    50.2460 ca         1 TK0      -0.081000
     32 C41         46.0710    27.0870    49.7030 ca         1 TK0      -0.081000
     33 C42         45.5390    28.0690    48.8680 ca         1 TK0      -0.146000
     34 C43         46.2480    29.2590    48.5860 ca         1 TK0      -0.078800
     35 C44         47.5210    29.4340    49.1470 ca         1 TK0      -0.069000
     36 C45         45.5060    30.1290    47.7160 cc         1 TK0      -0.169200
     37 C46         44.3060    29.6130    47.3570 cd         1 TK0      -0.153400
     38 N04         47.1250    28.2530    54.6850 nh         1 TK0      -0.797300
     39 N08         46.3820    26.1120    54.2270 nb         1 TK0      -0.265000
     40 N10         44.4160    25.6170    52.9690 nb         1 TK0      -0.188000
     41 N23         42.1170    34.1130    45.9060 ns         1 TK0      -0.506900
     42 N29         41.0100    39.2360    41.9040 nb         1 TK0      -0.663000
     43 N37         49.4520    28.9750    51.9570 ns         1 TK0      -0.500900
     44 O33         44.0450    35.2790    46.1510 o          1 TK0      -0.604100
     45 O36         49.7610    26.8740    52.7300 o          1 TK0      -0.611100
     46 S34         43.1340    27.5980    51.6490 ss         1 TK0      -0.120900
     47 S47         44.0010    28.0520    48.0540 ss         1 TK0       0.046400
     48 H1          50.0370    30.6720    54.0280 hc         1 TK0       0.048200
     49 H2          49.5470    30.2930    55.6590 hc         1 TK0       0.048200
     50 H3          50.4840    28.2970    54.8240 hc         1 TK0       0.083700
     51 H4          48.5300    26.7300    54.9380 h1         1 TK0       0.079200
     52 H5          48.5280    27.9620    56.2090 h1         1 TK0       0.079200
     53 H6          46.9910    29.7420    56.1050 h1         1 TK0       0.057200
     54 H7          45.8510    29.9170    54.7860 h1         1 TK0       0.057200
     55 H8          47.6710    30.5870    53.2600 hc         1 TK0       0.051200
     56 H9          47.7550    31.5870    54.6990 hc         1 TK0       0.051200
     57 H10         45.6360    24.2320    53.8760 h5         1 TK0       0.050100
     58 H11         45.5340    30.0730    52.7570 ha         1 TK0       0.199000
     59 H12         45.1760    31.4610    51.1060 ha         1 TK0       0.115500
     60 H13         44.3820    33.2890    49.6890 ha         1 TK0       0.114500
     61 H14         40.6790    31.2350    49.0870 ha         1 TK0       0.114500
     62 H15         41.4490    29.4130    50.5260 ha         1 TK0       0.115500
     63 H16         42.5110    34.4190    48.5670 hc         1 TK0       0.056200
     64 H17         40.9600    33.6040    48.3470 hc         1 TK0       0.056200
     65 H18         41.9500    32.1670    46.5810 h1         1 TK0       0.058700
     66 H19         43.5260    32.9140    46.8380 h1         1 TK0       0.058700
     67 H20         43.2380    36.7590    44.2380 ha         1 TK0       0.205000
     68 H21         40.3770    35.9160    44.9630 ha         1 TK0       0.167000
     69 H22         42.5400    38.1560    42.7400 h4         1 TK0       0.024100
     70 H23         39.3440    40.2120    41.1730 h4         1 TK0       0.023100
     71 H24         37.7210    38.9160    42.5380 ha         1 TK0       0.127000
     72 H25         38.5880    37.1540    44.0810 ha         1 TK0       0.118000
     73 H26         50.0230    27.7070    50.4320 h1         1 TK0       0.064200
     74 H27         49.9780    29.4200    50.0050 h1         1 TK0       0.064200
     75 H28         47.7540    26.5420    50.8990 ha         1 TK0       0.135000
     76 H29         45.5160    26.1850    49.9230 ha         1 TK0       0.130000
     77 H30         48.0840    30.3340    48.9290 ha         1 TK0       0.110000
     78 H31         45.8590    31.0990    47.3950 ha         1 TK0       0.204000
     79 H32         43.5550    30.0650    46.7300 h4         1 TK0       0.211000
     80 H33         41.2270    34.0500    45.4380 hn         1 TK0       0.313500
     81 H34         49.2800    29.9380    52.1890 hn         1 TK0       0.312500
@<TRIPOS>BOND
     1     1     2 1   
     2     1     5 1   
     3     1    48 1   
     4     1    49 1   
     5     2     3 1   
     6     2    28 1   
     7     2    50 1   
     8     3    38 1   
     9     3    51 1   
    10     3    52 1   
    11     4     5 1   
    12     4    38 1   
    13     4    53 1   
    14     4    54 1   
    15     5    55 1   
    16     5    56 1   
    17     6     9 ar  
    18     6    38 1   
    19     6    39 ar  
    20     7    39 ar  
    21     7    40 ar  
    22     7    57 1   
    23     8     9 ar  
    24     8    40 ar  
    25     8    46 1   
    26     9    10 1   
    27    10    11 2   
    28    10    58 1   
    29    11    12 1   
    30    11    46 1   
    31    12    13 ar  
    32    12    17 ar  
    33    13    14 ar  
    34    13    59 1   
    35    14    15 ar  
    36    14    60 1   
    37    15    16 ar  
    38    15    18 1   
    39    16    17 ar  
    40    16    61 1   
    41    17    62 1   
    42    18    19 1   
    43    18    63 1   
    44    18    64 1   
    45    19    41 1   
    46    19    65 1   
    47    19    66 1   
    48    20    21 1   
    49    20    41 1   
    50    20    44 2   
    51    21    22 2   
    52    21    67 1   
    53    22    23 1   
    54    22    68 1   
    55    23    24 ar  
    56    23    27 ar  
    57    24    42 ar  
    58    24    69 1   
    59    25    26 ar  
    60    25    42 ar  
    61    25    70 1   
    62    26    27 ar  
    63    26    71 1   
    64    27    72 1   
    65    28    43 1   
    66    28    45 2   
    67    29    30 1   
    68    29    43 1   
    69    29    73 1   
    70    29    74 1   
    71    30    31 ar  
    72    30    35 ar  
    73    31    32 ar  
    74    31    75 1   
    75    32    33 ar  
    76    32    76 1   
    77    33    34 ar  
    78    33    47 1   
    79    34    35 ar  
    80    34    36 1   
    81    35    77 1   
    82    36    37 2   
    83    36    78 1   
    84    37    47 1   
    85    37    79 1   
    86    41    80 1   
    87    43    81 1   
@<TRIPOS>SUBSTRUCTURE
     1 TK0         1 TEMP              0 ****  ****    0 ROOT
