@<TRIPOS>MOLECULE
TK0
   81    87     1     0     0
SMALL
No Charge or Current Charge


@<TRIPOS>ATOM
      1 C01         49.7360    29.7920    54.9990 c6         1 TK0      -0.076400
      2 C02         49.9450    28.4490    54.2330 c6         1 TK0      -0.164700
      3 C03         48.7550    27.4950    54.5510 c6         1 TK0       0.235800
      4 C05         47.2280    29.3780    55.0890 c6         1 TK0       0.226800
      5 C06         48.3340    30.4010    54.7600 c6         1 TK0      -0.101400
      6 C07         46.3010    27.3490    53.9860 ca         1 TK0       0.441900
      7 C09         45.1700    25.3500    54.1730 ca         1 TK0       0.168900
      8 C11         44.1650    27.0020    52.9720 ca         1 TK0       0.163300
      9 C12         45.2360    27.8360    53.2060 ca         1 TK0      -0.224800
     10 C13         45.1100    29.1190    52.5460 cc         1 TK0      -0.137200
     11 C14         43.9140    29.2260    51.8460 cd         1 TK0      -0.007600
     12 C15         43.4920    30.3700    51.0020 ca         1 TK0      -0.015800
     13 C16         44.3390    31.4850    50.8050 ca         1 TK0      -0.095000
     14 C17         43.9460    32.5540    49.9810 ca         1 TK0      -0.104000
     15 C18         42.6960    32.5360    49.3390 ca         1 TK0      -0.080300
     16 C19         41.8410    31.4380    49.5350 ca         1 TK0      -0.104000
     17 C20         42.2340    30.3680    50.3570 ca         1 TK0      -0.095000
     18 C21         42.2840    33.6820    48.4280 c3         1 TK0      -0.053100
     19 C22         42.7760    33.4680    46.9830 c3         1 TK0       0.105000
     20 C24         42.9540    35.7870    46.0150 c          1 TK0       0.594300
     21 C25         42.3550    36.7530    45.0510 ce         1 TK0      -0.260200
     22 C26         41.2780    36.5500    44.2290 cf         1 TK0      -0.115200
     23 C27         40.6610    37.4860    43.2640 ca         1 TK0      -0.121800
     24 C28         41.1500    38.7990    43.0640 ca         1 TK0       0.357900
     25 C30         39.5340    39.2650    41.4690 ca         1 TK0       0.344900
     26 C31         38.9780    37.9820    41.5990 ca         1 TK0      -0.164000
     27 C32         39.5470    37.0760    42.5080 ca         1 TK0      -0.059000
     28 C35         50.1310    28.6800    52.7190 c          1 TK0       0.602100
     29 C38         48.9550    28.8420    50.5050 c3         1 TK0       0.150300
     30 C39         47.5810    28.5080    49.9450 ca         1 TK0      -0.122300
     31 C40         46.9750    27.2620    50.2360 ca         1 TK0      -0.081000
     32 C41         45.7120    26.9400    49.7010 ca         1 TK0      -0.081000
     33 C42         45.0730    27.8730    48.8700 ca         1 TK0      -0.146000
     34 C43         45.6580    29.0890    48.5810 ca         1 TK0      -0.078800
     35 C44         46.9120    29.4310    49.1100 ca         1 TK0      -0.069000
     36 C45         44.8460    29.9100    47.7150 cc         1 TK0      -0.169200
     37 C46         43.6580    29.2820    47.3800 cd         1 TK0      -0.153400
     38 N04         47.4290    28.1390    54.2940 nh         1 TK0      -0.797300
     39 N08         46.2670    26.0870    54.4670 nb         1 TK0      -0.265000
     40 N10         44.1010    25.7450    53.4470 nb         1 TK0      -0.188000
     41 N23         42.3590    34.5470    46.0830 ns         1 TK0      -0.506900
     42 N29         40.6030    39.6750    42.1870 nb         1 TK0      -0.663000
     43 N37         48.9900    28.7320    51.9590 ns         1 TK0      -0.500900
     44 O33         43.9200    36.0820    46.7010 o          1 TK0      -0.604100
     45 O36         51.2400    28.6790    52.2040 o          1 TK0      -0.611100
     46 S34         42.8970    27.7520    51.9910 ss         1 TK0      -0.120900
     47 S47         43.4830    27.6590    48.1100 ss         1 TK0       0.046400
     48 H1          50.5120    30.5150    54.7110 hc         1 TK0       0.048200
     49 H2          49.8700    29.6170    56.0760 hc         1 TK0       0.048200
     50 H3          50.8800    28.0000    54.5920 hc         1 TK0       0.083700
     51 H4          48.8690    26.5840    53.9440 h1         1 TK0       0.079200
     52 H5          48.8190    27.1830    55.6050 h1         1 TK0       0.079200
     53 H6          47.2560    29.1430    56.1640 h1         1 TK0       0.057200
     54 H7          46.2460    29.8300    54.8860 h1         1 TK0       0.057200
     55 H8          48.2340    30.7360    53.7190 hc         1 TK0       0.051200
     56 H9          48.2050    31.2950    55.3850 hc         1 TK0       0.051200
     57 H10         45.1450    24.3350    54.5650 h5         1 TK0       0.050100
     58 H11         45.8780    29.8840    52.5550 ha         1 TK0       0.199000
     59 H12         45.3170    31.5320    51.2710 ha         1 TK0       0.115500
     60 H13         44.6210    33.3940    49.8360 ha         1 TK0       0.114500
     61 H14         40.8720    31.4070    49.0420 ha         1 TK0       0.114500
     62 H15         41.5480    29.5350    50.4760 ha         1 TK0       0.115500
     63 H16         42.6820    34.6290    48.8110 hc         1 TK0       0.056200
     64 H17         41.1920    33.7880    48.4220 hc         1 TK0       0.056200
     65 H18         42.3740    32.5200    46.6010 h1         1 TK0       0.058700
     66 H19         43.8720    33.3950    46.9750 h1         1 TK0       0.058700
     67 H20         42.8660    37.7120    45.0360 ha         1 TK0       0.205000
     68 H21         40.7810    35.5790    44.2610 ha         1 TK0       0.167000
     69 H22         42.0090    39.1710    43.6210 h4         1 TK0       0.024100
     70 H23         39.1100    39.9860    40.7710 h4         1 TK0       0.023100
     71 H24         38.1180    37.7010    40.9980 ha         1 TK0       0.127000
     72 H25         39.1270    36.0770    42.6190 ha         1 TK0       0.118000
     73 H26         49.6940    28.1520    50.0750 h1         1 TK0       0.064200
     74 H27         49.2420    29.8640    50.2240 h1         1 TK0       0.064200
     75 H28         47.4820    26.5450    50.8780 ha         1 TK0       0.135000
     76 H29         45.2410    25.9870    49.9300 ha         1 TK0       0.130000
     77 H30         47.3600    30.3930    48.8730 ha         1 TK0       0.110000
     78 H31         45.1150    30.9060    47.3720 ha         1 TK0       0.204000
     79 H32         42.8610    29.6700    46.7550 h4         1 TK0       0.211000
     80 H33         41.5670    34.3860    45.4750 hn         1 TK0       0.313500
     81 H34         48.1170    28.6500    52.4740 hn         1 TK0       0.312500
@<TRIPOS>BOND
     1     1     2 1   
     2     1     5 1   
     3     1    48 1   
     4     1    49 1   
     5     2     3 1   
     6     2    28 1   
     7     2    50 1   
     8     3    38 1   
     9     3    51 1   
    10     3    52 1   
    11     4     5 1   
    12     4    38 1   
    13     4    53 1   
    14     4    54 1   
    15     5    55 1   
    16     5    56 1   
    17     6     9 ar  
    18     6    38 1   
    19     6    39 ar  
    20     7    39 ar  
    21     7    40 ar  
    22     7    57 1   
    23     8     9 ar  
    24     8    40 ar  
    25     8    46 1   
    26     9    10 1   
    27    10    11 2   
    28    10    58 1   
    29    11    12 1   
    30    11    46 1   
    31    12    13 ar  
    32    12    17 ar  
    33    13    14 ar  
    34    13    59 1   
    35    14    15 ar  
    36    14    60 1   
    37    15    16 ar  
    38    15    18 1   
    39    16    17 ar  
    40    16    61 1   
    41    17    62 1   
    42    18    19 1   
    43    18    63 1   
    44    18    64 1   
    45    19    41 1   
    46    19    65 1   
    47    19    66 1   
    48    20    21 1   
    49    20    41 1   
    50    20    44 2   
    51    21    22 2   
    52    21    67 1   
    53    22    23 1   
    54    22    68 1   
    55    23    24 ar  
    56    23    27 ar  
    57    24    42 ar  
    58    24    69 1   
    59    25    26 ar  
    60    25    42 ar  
    61    25    70 1   
    62    26    27 ar  
    63    26    71 1   
    64    27    72 1   
    65    28    43 1   
    66    28    45 2   
    67    29    30 1   
    68    29    43 1   
    69    29    73 1   
    70    29    74 1   
    71    30    31 ar  
    72    30    35 ar  
    73    31    32 ar  
    74    31    75 1   
    75    32    33 ar  
    76    32    76 1   
    77    33    34 ar  
    78    33    47 1   
    79    34    35 ar  
    80    34    36 1   
    81    35    77 1   
    82    36    37 2   
    83    36    78 1   
    84    37    47 1   
    85    37    79 1   
    86    41    80 1   
    87    43    81 1   
@<TRIPOS>SUBSTRUCTURE
     1 TK0         1 TEMP              0 ****  ****    0 ROOT
