@<TRIPOS>MOLECULE
TK1
   54    58     1     0     0
SMALL
bcc


@<TRIPOS>ATOM
      1 C1          -6.3180     0.4500     1.6010 c3         1 TK1      -0.230300
      2 C2           6.9590    -4.0210     0.0900 ca         1 TK1      -0.093000
      3 C3           8.0120    -3.2600     0.5760 ca         1 TK1      -0.233300
      4 C4           5.7600    -3.3960    -0.2060 ca         1 TK1      -0.192300
      5 C5          -1.7180    -0.2370     0.2800 ca         1 TK1      -0.205500
      6 C6          -3.0740     0.0390    -1.7040 ca         1 TK1      -0.205500
      7 C7          -2.8490    -0.6090     0.9910 ca         1 TK1      -0.005500
      8 C8          -4.1940    -0.3440    -0.9960 ca         1 TK1      -0.005500
      9 C9           7.8170    -1.8960     0.7450 ca         1 TK1       0.408200
     10 C10          2.3950     1.6170    -0.4380 ca         1 TK1      -0.089000
     11 C11          1.1370    -0.7690    -1.3310 ca         1 TK1      -0.075000
     12 C12         -2.2160     2.9510     1.7650 c5         1 TK1      -0.168400
     13 C13         -3.0890     3.0940     0.5260 c5         1 TK1      -0.168400
     14 C15         -1.8340     0.0940    -1.0670 ca         1 TK1       0.193100
     15 C16         -4.0800    -0.6550     0.3560 ca         1 TK1      -0.319500
     16 C17          5.6680    -2.0240     0.0000 ca         1 TK1       0.391000
     17 C18          1.0860     1.6410    -0.8900 ca         1 TK1      -0.090300
     18 C19          3.0610     0.4010    -0.4400 ca         1 TK1      -0.079200
     19 C20          2.4540    -0.7900    -0.8740 ca         1 TK1       0.081400
     20 C21          0.4860     0.4460    -1.3290 ca         1 TK1       0.072100
     21 C22          4.4290    -1.3030    -0.2910 cc         1 TK1       0.360800
     22 C23         -0.8070     2.8650     1.2380 c          1 TK1       0.711500
     23 C24         -2.1240     3.1770    -0.6280 c          1 TK1       0.711500
     24 N25          4.3230     0.0320    -0.0740 na         1 TK1      -0.227300
     25 N26          6.6740    -1.2880     0.4650 nb         1 TK1      -0.689000
     26 N27          3.3330    -1.8330    -0.7690 nd         1 TK1      -0.569100
     27 N28         -0.8490     2.9790    -0.1360 n          1 TK1      -0.522400
     28 O30         -2.3860     3.3750    -1.7880 o          1 TK1      -0.572500
     29 O31         -5.1040    -1.6900     2.5400 o          1 TK1      -0.594300
     30 O32         -6.3980    -1.8860     0.3920 o          1 TK1      -0.594300
     31 S34         -5.5250    -1.1070     1.2680 sy         1 TK1       1.100300
     32 H1          -6.5880     0.9290     0.6630 h1         1 TK1       0.100367
     33 H1A         -7.2150     0.2410     2.1830 h1         1 TK1       0.100367
     34 H1B         -5.6440     1.0850     2.1730 h1         1 TK1       0.100367
     35 H2           7.0700    -5.0870    -0.0560 ha         1 TK1       0.145000
     36 H3           8.9650    -3.7080     0.8210 ha         1 TK1       0.147000
     37 H4           4.9130    -3.9500    -0.5860 ha         1 TK1       0.170000
     38 H5          -0.7630    -0.2190     0.7860 ha         1 TK1       0.160500
     39 H6          -3.1520     0.2910    -2.7530 ha         1 TK1       0.160500
     40 H7          -2.7520    -0.8550     2.0390 ha         1 TK1       0.156000
     41 H8          -5.1490    -0.3930    -1.5030 ha         1 TK1       0.156000
     42 H9           8.6180    -1.2700     1.1210 h4         1 TK1       0.023100
     43 H10          2.8730     2.5260    -0.0950 ha         1 TK1       0.148000
     44 H11          0.6480    -1.6690    -1.6830 ha         1 TK1       0.165000
     45 H12         -2.2890     3.8120     2.4310 hc         1 TK1       0.085700
     46 H12A        -2.4410     2.0670     2.3610 hc         1 TK1       0.085700
     47 H13         -3.7470     2.2370     0.3680 hc         1 TK1       0.085700
     48 H13A        -3.7210     3.9810     0.5410 hc         1 TK1       0.085700
     49 H14          1.0080     3.7590    -0.6470 h1         1 TK1       0.074200
     50 H14A         0.0350     3.1690    -1.9790 h1         1 TK1       0.074200
     51 HN25         5.0600     0.6200     0.2850 hn         1 TK1       0.331700
     52 O33         -0.7980     0.5110    -1.8270 os         1 TK1      -0.237200
     53 C14          0.3450     2.9510    -0.9580 c3         1 TK1       0.158300
     54 O29          0.2110     2.7340     1.8710 o          1 TK1      -0.572500
@<TRIPOS>BOND
     1     1    31 1   
     2     1    32 1   
     3     1    33 1   
     4     1    34 1   
     5     2     3 ar  
     6     2     4 ar  
     7     2    35 1   
     8     3     9 ar  
     9     3    36 1   
    10     4    16 ar  
    11     4    37 1   
    12     5     7 ar  
    13     5    14 ar  
    14     5    38 1   
    15     6     8 ar  
    16     6    14 ar  
    17     6    39 1   
    18     7    15 ar  
    19     7    40 1   
    20     8    15 ar  
    21     8    41 1   
    22     9    25 ar  
    23     9    42 1   
    24    10    17 ar  
    25    10    18 ar  
    26    10    43 1   
    27    11    19 ar  
    28    11    20 ar  
    29    11    44 1   
    30    12    13 1   
    31    12    22 1   
    32    12    45 1   
    33    12    46 1   
    34    13    23 1   
    35    13    47 1   
    36    13    48 1   
    37    14    52 1   
    38    15    31 1   
    39    16    21 1   
    40    16    25 ar  
    41    17    20 ar  
    42    17    53 1   
    43    18    19 ar  
    44    18    24 1   
    45    19    26 1   
    46    20    52 1   
    47    21    24 1   
    48    21    26 2   
    49    22    27 1   
    50    22    54 2   
    51    23    27 1   
    52    23    28 2   
    53    24    51 1   
    54    27    53 1   
    55    29    31 2   
    56    30    31 2   
    57    49    53 1   
    58    50    53 1   
@<TRIPOS>SUBSTRUCTURE
     1 TK1         1 TEMP              0 ****  ****    0 ROOT
