@<TRIPOS>MOLECULE
TK1
   54    58     1     0     0
SMALL
No Charge or Current Charge


@<TRIPOS>ATOM
      1 C1          -6.1330     0.2940     1.9520 c3         1 TK1      -0.341100
      2 C2           7.0090    -4.0720     0.1530 ca         1 TK1      -0.075000
      3 C3           8.0550    -3.3310     0.7220 ca         1 TK1      -0.150000
      4 C4           5.8200    -3.3990    -0.1750 ca         1 TK1      -0.109000
      5 C5          -1.7730    -0.3900     0.1130 ca         1 TK1      -0.187500
      6 C6          -3.1780     0.0660    -1.8190 ca         1 TK1      -0.187500
      7 C7          -2.9030    -0.7950     0.8430 ca         1 TK1       0.012500
      8 C8          -4.3140    -0.3340    -1.0950 ca         1 TK1       0.012500
      9 C9           7.8780    -1.9560     0.9410 ca         1 TK1       0.342900
     10 C10          2.3610     1.6260    -0.4850 ca         1 TK1      -0.071000
     11 C11          1.1640    -0.7580    -1.4570 ca         1 TK1      -0.057000
     12 C12         -2.1450     3.3920     1.7710 c5         1 TK1      -0.168400
     13 C13         -3.0900     3.0850     0.5720 c5         1 TK1      -0.168400
     14 C15         -1.9090     0.0390    -1.2230 ca         1 TK1       0.193100
     15 C16         -4.1760    -0.7660     0.2400 ca         1 TK1      -0.319500
     16 C17          5.7070    -2.0120     0.0720 ca         1 TK1       0.325700
     17 C18          1.0420     1.6620    -0.9950 ca         1 TK1      -0.090300
     18 C19          3.0270     0.3950    -0.4800 ca         1 TK1      -0.079200
     19 C20          2.4660    -0.7570    -0.9440 ca         1 TK1       0.081400
     20 C21          0.4520     0.4620    -1.4770 ca         1 TK1       0.072100
     21 C22          4.4540    -1.2930    -0.2720 cc         1 TK1       0.360800
     22 C23         -0.7740     2.9460     1.2420 c          1 TK1       0.569000
     23 C24         -2.1700     3.3100    -0.6370 c          1 TK1       0.569000
     24 N25          4.2790     0.0750    -0.0530 na         1 TK1      -0.277600
     25 N26          6.7340    -1.3020     0.6270 nb         1 TK1      -0.689000
     26 N27          3.3420    -1.8340    -0.8250 nd         1 TK1      -0.569100
     27 N28         -0.8970     3.0590    -0.1380 n          1 TK1      -0.388400
     28 O30         -2.4220     3.8040    -1.7260 o          1 TK1      -0.497000
     29 O31         -5.2160    -2.1400     2.2760 o          1 TK1      -0.523500
     30 O32         -6.7030    -1.6230     0.2560 o          1 TK1      -0.523500
     31 S34         -5.6320    -1.2460     1.1870 sy         1 TK1       1.069500
     32 H1          -6.3530     1.0150     1.1580 h1         1 TK1       0.100367
     33 H1A         -7.0230     0.1010     2.5590 h1         1 TK1       0.100367
     34 H1B         -5.3070     0.6500     2.5780 h1         1 TK1       0.100367
     35 H2           7.1150    -5.1400    -0.0300 ha         1 TK1       0.127000
     36 H3           8.9930    -3.8080     0.9920 ha         1 TK1       0.129000
     37 H4           4.9920    -3.9460    -0.6180 ha         1 TK1       0.152000
     38 H5          -0.8020    -0.4040     0.6000 ha         1 TK1       0.142500
     39 H6          -3.2830     0.4060    -2.8450 ha         1 TK1       0.142500
     40 H7          -2.7830    -1.1180     1.8770 ha         1 TK1       0.138000
     41 H8          -5.2920    -0.2990    -1.5720 ha         1 TK1       0.138000
     42 H9           8.6740    -1.3570     1.3810 h4         1 TK1       0.023100
     43 H10          2.8460     2.5230    -0.1050 ha         1 TK1       0.130000
     44 H11          0.7130    -1.6740    -1.8260 ha         1 TK1       0.147000
     45 H12         -2.1030     4.4770     1.9160 hc         1 TK1       0.085700
     46 H12A        -2.3930     2.9100     2.7220 hc         1 TK1       0.085700
     47 H13         -3.3520     2.0230     0.6000 hc         1 TK1       0.085700
     48 H13A        -4.0050     3.6830     0.5080 hc         1 TK1       0.085700
     49 H14          0.9640     3.8040    -0.7600 h1         1 TK1       0.074200
     50 H14A        -0.0270     3.1710    -2.0680 h1         1 TK1       0.074200
     51 HN25         4.9740     0.6910     0.3510 hn         1 TK1       0.382000
     52 O33         -0.8320     0.4740    -1.9650 os         1 TK1      -0.237200
     53 C14          0.2820     2.9870    -1.0310 c3         1 TK1       0.158300
     54 O29          0.1630     2.4410     1.8410 o          1 TK1      -0.497000
@<TRIPOS>BOND
     1     1    31 1   
     2     1    32 1   
     3     1    33 1   
     4     1    34 1   
     5     2     3 ar  
     6     2     4 ar  
     7     2    35 1   
     8     3     9 ar  
     9     3    36 1   
    10     4    16 ar  
    11     4    37 1   
    12     5     7 ar  
    13     5    14 ar  
    14     5    38 1   
    15     6     8 ar  
    16     6    14 ar  
    17     6    39 1   
    18     7    15 ar  
    19     7    40 1   
    20     8    15 ar  
    21     8    41 1   
    22     9    25 ar  
    23     9    42 1   
    24    10    17 ar  
    25    10    18 ar  
    26    10    43 1   
    27    11    19 ar  
    28    11    20 ar  
    29    11    44 1   
    30    12    13 1   
    31    12    22 1   
    32    12    45 1   
    33    12    46 1   
    34    13    23 1   
    35    13    47 1   
    36    13    48 1   
    37    14    52 1   
    38    15    31 1   
    39    16    21 1   
    40    16    25 ar  
    41    17    20 ar  
    42    17    53 1   
    43    18    19 ar  
    44    18    24 1   
    45    19    26 1   
    46    20    52 1   
    47    21    24 1   
    48    21    26 2   
    49    22    27 1   
    50    22    54 2   
    51    23    27 1   
    52    23    28 2   
    53    24    51 1   
    54    27    53 1   
    55    29    31 2   
    56    30    31 2   
    57    49    53 1   
    58    50    53 1   
@<TRIPOS>SUBSTRUCTURE
     1 TK1         1 TEMP              0 ****  ****    0 ROOT
