@<TRIPOS>MOLECULE
TK2
   65    69     1     0     0
SMALL
No Charge or Current Charge


@<TRIPOS>ATOM
      1 C11         -1.8480    -9.2580    23.9100 cc         1 TK2      -0.120000
      2 C12         -0.9660   -10.0690    17.4340 c3         1 TK2       0.194800
      3 C13         -2.1170   -10.4620    16.4870 c3         1 TK2      -0.036100
      4 C14         -1.6110   -10.8230    15.0970 ca         1 TK2      -0.079300
      5 C15         -1.5050    -9.8320    14.1000 ca         1 TK2      -0.106500
      6 C17         -0.6610   -11.4870    12.5260 ca         1 TK2      -0.111000
      7 C19         -1.2360   -12.1470    14.7980 ca         1 TK2      -0.106500
      8 C20         -6.6690    -8.4000    24.3360 ca         1 TK2      -0.079000
      9 C21         -7.8460    -8.2730    25.0830 ca         1 TK2      -0.117000
     10 C23         -8.9880    -9.8230    23.5670 cp         1 TK2      -0.036000
     11 C24        -10.2410   -10.5680    23.2340 cp         1 TK2      -0.038000
     12 C25        -10.2480   -11.9810    23.1250 ca         1 TK2      -0.099500
     13 C27        -12.6330   -11.9730    22.6430 ca         1 TK2      -0.107000
     14 C28        -12.6500   -10.5730    22.7590 ca         1 TK2      -0.112000
     15 C29        -11.4640    -9.8780    23.0560 ca         1 TK2      -0.099500
     16 N1           2.3120   -11.0960    19.0690 n8         1 TK2      -1.000200
     17 C8           1.7790    -9.7190    19.2120 c3         1 TK2       0.227000
     18 C7           0.6260    -9.6350    20.1940 cc         1 TK2       0.043400
     19 C6          -0.7440    -9.6310    19.9490 cd         1 TK2       0.012900
     20 N3          -1.4780    -9.7210    18.7710 nu         1 TK2      -0.785200
     21 C18         -0.7630   -12.4790    13.5160 ca         1 TK2      -0.109500
     22 C16         -1.0320   -10.1640    12.8180 ca         1 TK2      -0.109500
     23 N2           0.9050    -9.5190    21.5470 nc         1 TK2      -0.288600
     24 C9          -0.2660    -9.4420    22.1520 cd         1 TK2      -0.097000
     25 N           -1.2700    -9.4990    21.2190 na         1 TK2       0.161100
     26 C5          -2.6340    -9.4550    21.5340 cd         1 TK2      -0.208000
     27 C10         -0.5190    -9.3140    23.5520 cd         1 TK2      -0.048000
     28 C4          -2.8750    -9.3300    22.9030 cc         1 TK2       0.112100
     29 O           -4.1840    -9.2730    23.3210 os         1 TK2      -0.334100
     30 C3          -5.3030    -9.3380    22.4120 c3         1 TK2       0.206900
     31 C2          -6.6210    -9.2310    23.1960 ca         1 TK2      -0.093300
     32 C22         -8.9910    -8.9830    24.7040 ca         1 TK2      -0.093000
     33 C1          -7.7940    -9.9270    22.7870 ca         1 TK2      -0.054300
     34 C           -7.7760   -10.7540    21.4960 c3         1 TK2      -0.055800
     35 C26        -11.4320   -12.6770    22.8280 ca         1 TK2      -0.112000
     36 H1          -2.1400    -9.1620    24.9500 ha         1 TK2       0.136000
     37 H2          -0.2630   -10.9100    17.5070 h1         1 TK2       0.051200
     38 H3          -0.4300    -9.2120    17.0050 h1         1 TK2       0.051200
     39 H4          -2.8320    -9.6330    16.4240 hc         1 TK2       0.049700
     40 H5          -2.6640   -11.3100    16.9190 hc         1 TK2       0.049700
     41 H6          -1.7880    -8.8050    14.3180 ha         1 TK2       0.112000
     42 H7          -0.2950   -11.7440    11.5340 ha         1 TK2       0.112000
     43 H8          -1.3090   -12.9210    15.5600 ha         1 TK2       0.112000
     44 H9          -5.7880    -7.8420    24.6480 ha         1 TK2       0.129000
     45 H10         -7.8690    -7.6310    25.9600 ha         1 TK2       0.116000
     46 H11         -9.3260   -12.5370    23.2780 ha         1 TK2       0.115500
     47 H12        -13.5510   -12.5110    22.4140 ha         1 TK2       0.113000
     48 H13        -13.5800   -10.0260    22.6200 ha         1 TK2       0.113000
     49 H14        -11.4880    -8.7940    23.1430 ha         1 TK2       0.115500
     50 H15          3.1610   -11.0630    18.4940 hn         1 TK2       0.398500
     51 H16          2.6500   -11.4050    19.9870 hn         1 TK2       0.398500
     52 H18          2.5920    -9.0700    19.5660 h1         1 TK2       0.038700
     53 H19          1.4710    -9.3460    18.2280 h1         1 TK2       0.038700
     54 H20         -2.4920    -9.6510    18.8660 hn         1 TK2       0.442000
     55 H21         -0.4750   -13.5030    13.2910 ha         1 TK2       0.111500
     56 H22         -0.9530    -9.3950    12.0530 ha         1 TK2       0.111500
     57 H23         -3.3560    -9.5160    20.7330 h4         1 TK2       0.161000
     58 H24          0.2810    -9.2660    24.2850 ha         1 TK2       0.145000
     59 H25         -5.2590    -8.5150    21.6870 h1         1 TK2       0.043700
     60 H26         -5.2640   -10.2860    21.8630 h1         1 TK2       0.043700
     61 H27         -9.8940    -8.8910    25.3020 ha         1 TK2       0.118000
     62 H28         -7.3210   -11.7370    21.6640 hc         1 TK2       0.045700
     63 H29         -8.7790   -10.9160    21.0870 hc         1 TK2       0.045700
     64 H30         -7.2140   -10.2520    20.7000 hc         1 TK2       0.045700
     65 H31        -11.4190   -13.7620    22.7450 ha         1 TK2       0.113000
@<TRIPOS>BOND
     1     1    27 2   
     2     1    28 1   
     3     1    36 1   
     4     2     3 1   
     5     2    20 1   
     6     2    37 1   
     7     2    38 1   
     8     3     4 1   
     9     3    39 1   
    10     3    40 1   
    11     4     5 ar  
    12     4     7 ar  
    13     5    22 ar  
    14     5    41 1   
    15     6    21 ar  
    16     6    22 ar  
    17     6    42 1   
    18     7    21 ar  
    19     7    43 1   
    20     8     9 ar  
    21     8    31 ar  
    22     8    44 1   
    23     9    32 ar  
    24     9    45 1   
    25    10    11 1   
    26    10    32 ar  
    27    10    33 ar  
    28    11    12 ar  
    29    11    15 ar  
    30    12    35 ar  
    31    12    46 1   
    32    13    14 ar  
    33    13    35 ar  
    34    13    47 1   
    35    14    15 ar  
    36    14    48 1   
    37    15    49 1   
    38    16    17 1   
    39    16    50 1   
    40    16    51 1   
    41    17    18 1   
    42    17    52 1   
    43    17    53 1   
    44    18    19 2   
    45    18    23 1   
    46    19    20 1   
    47    19    25 1   
    48    20    54 1   
    49    21    55 1   
    50    22    56 1   
    51    23    24 2   
    52    24    25 1   
    53    24    27 1   
    54    25    26 1   
    55    26    28 2   
    56    26    57 1   
    57    27    58 1   
    58    28    29 1   
    59    29    30 1   
    60    30    31 1   
    61    30    59 1   
    62    30    60 1   
    63    31    33 ar  
    64    32    61 1   
    65    33    34 1   
    66    34    62 1   
    67    34    63 1   
    68    34    64 1   
    69    35    65 1   
@<TRIPOS>SUBSTRUCTURE
     1 TK2         1 TEMP              0 ****  ****    0 ROOT
