@<TRIPOS>MOLECULE
TK2
   65    69     1     0     0
SMALL
bcc


@<TRIPOS>ATOM
      1 C11         -1.6800    -9.3980    23.8760 cc         1 TK2      -0.138000
      2 C12         -1.1730    -9.9070    17.7190 c3         1 TK2       0.194800
      3 C13         -2.4000   -10.2040    16.8630 c3         1 TK2      -0.036100
      4 C14         -2.0630   -11.0310    15.6500 ca         1 TK2      -0.079300
      5 C15         -2.4690   -10.6330    14.3790 ca         1 TK2      -0.124500
      6 C17         -1.4090   -12.5530    13.3860 ca         1 TK2      -0.129000
      7 C19         -1.3270   -12.2110    15.7680 ca         1 TK2      -0.124500
      8 C20         -6.3510    -9.6810    24.7630 ca         1 TK2      -0.097000
      9 C21         -7.5320    -9.8350    25.4730 ca         1 TK2      -0.135000
     10 C23         -8.7220   -10.2270    23.4080 cp         1 TK2      -0.036000
     11 C24        -10.0110   -10.5650    22.7590 cp         1 TK2      -0.038000
     12 C25        -10.1400   -11.7050    21.9650 ca         1 TK2      -0.117500
     13 C27        -12.4800   -11.2520    21.6320 ca         1 TK2      -0.125000
     14 C28        -12.3640   -10.1150    22.4200 ca         1 TK2      -0.130000
     15 C29        -11.1390    -9.7760    22.9800 ca         1 TK2      -0.117500
     16 N1           2.1770   -10.1920    18.6200 n8         1 TK2      -0.889800
     17 C8           1.7460    -8.8650    19.0540 c3         1 TK2       0.227000
     18 C7           0.6970    -8.9660    20.1130 cc         1 TK2       0.043400
     19 C6          -0.6710    -9.0400    19.9360 cd         1 TK2       0.012900
     20 N3          -1.5210    -9.0430    18.8370 nu         1 TK2      -0.730000
     21 C18         -0.9980   -12.9610    14.6480 ca         1 TK2      -0.127500
     22 C16         -2.1510   -11.3870    13.2550 ca         1 TK2      -0.127500
     23 N2           1.0260    -9.0580    21.4240 nc         1 TK2      -0.288600
     24 C9          -0.1190    -9.1760    22.0760 cd         1 TK2      -0.046300
     25 N           -1.1830    -9.1790    21.2050 na         1 TK2       0.059700
     26 C5          -2.4880    -9.3020    21.6020 cd         1 TK2      -0.175300
     27 C10         -0.3920    -9.2830    23.4550 cd         1 TK2      -0.066000
     28 C4          -2.7490    -9.4150    22.9340 cc         1 TK2       0.112100
     29 O           -3.9800    -9.5490    23.4630 os         1 TK2      -0.310900
     30 C3          -5.0810    -9.6010    22.5870 c3         1 TK2       0.183700
     31 C2          -6.3480    -9.7840    23.3780 ca         1 TK2      -0.093300
     32 C22         -8.7070   -10.1090    24.7990 ca         1 TK2      -0.111000
     33 C1          -7.5380   -10.0430    22.6820 ca         1 TK2      -0.054300
     34 C           -7.5140   -10.0910    21.1780 c3         1 TK2      -0.055800
     35 C26        -11.3640   -12.0460    21.4070 ca         1 TK2      -0.130000
     36 H1          -1.9110    -9.4810    24.9300 ha         1 TK2       0.154000
     37 H2          -0.7730   -10.8330    18.1330 h1         1 TK2       0.051200
     38 H3          -0.3850    -9.4820    17.0870 h1         1 TK2       0.051200
     39 H4          -2.8540    -9.2630    16.5410 hc         1 TK2       0.049700
     40 H5          -3.1470   -10.7140    17.4780 hc         1 TK2       0.049700
     41 H6          -3.0380    -9.7180    14.2650 ha         1 TK2       0.130000
     42 H7          -1.1520   -13.1370    12.5110 ha         1 TK2       0.130000
     43 H8          -1.0040   -12.5540    16.7430 ha         1 TK2       0.130000
     44 H9          -5.4350    -9.4780    25.3000 ha         1 TK2       0.147000
     45 H10         -7.5310    -9.7520    26.5520 ha         1 TK2       0.134000
     46 H11         -9.2790   -12.3400    21.7940 ha         1 TK2       0.133500
     47 H12        -13.4350   -11.5180    21.1960 ha         1 TK2       0.131000
     48 H13        -13.2270    -9.4870    22.5990 ha         1 TK2       0.131000
     49 H14        -11.0580    -8.8840    23.5890 ha         1 TK2       0.133500
     50 H15          2.8480   -10.0950    17.8680 hn         1 TK2       0.343300
     51 H16          2.6740   -10.6420    19.3780 hn         1 TK2       0.343300
     52 H18          2.5640    -8.2440    19.4410 h1         1 TK2       0.038700
     53 H19          1.3400    -8.3380    18.1890 h1         1 TK2       0.038700
     54 H20         -1.7710    -8.1120    18.5270 hn         1 TK2       0.386800
     55 H21         -0.4120   -13.8640    14.7650 ha         1 TK2       0.129500
     56 H22         -2.4770   -11.0570    12.2770 ha         1 TK2       0.129500
     57 H23         -3.2210    -9.3040    20.8090 h4         1 TK2       0.179000
     58 H24          0.4320    -9.2730    24.1550 ha         1 TK2       0.163000
     59 H25         -5.1360    -8.6760    21.9950 h1         1 TK2       0.043700
     60 H26         -4.9560   -10.4250    21.8730 h1         1 TK2       0.043700
     61 H27         -9.6260   -10.2530    25.3530 ha         1 TK2       0.136000
     62 H28         -7.0560   -11.0120    20.8130 hc         1 TK2       0.045700
     63 H29         -8.5110   -10.0300    20.7510 hc         1 TK2       0.045700
     64 H30         -6.9350    -9.2640    20.7640 hc         1 TK2       0.045700
     65 H31        -11.4450   -12.9380    20.7990 ha         1 TK2       0.131000
@<TRIPOS>BOND
     1     1    27 2   
     2     1    28 1   
     3     1    36 1   
     4     2     3 1   
     5     2    20 1   
     6     2    37 1   
     7     2    38 1   
     8     3     4 1   
     9     3    39 1   
    10     3    40 1   
    11     4     5 ar  
    12     4     7 ar  
    13     5    22 ar  
    14     5    41 1   
    15     6    21 ar  
    16     6    22 ar  
    17     6    42 1   
    18     7    21 ar  
    19     7    43 1   
    20     8     9 ar  
    21     8    31 ar  
    22     8    44 1   
    23     9    32 ar  
    24     9    45 1   
    25    10    11 1   
    26    10    32 ar  
    27    10    33 ar  
    28    11    12 ar  
    29    11    15 ar  
    30    12    35 ar  
    31    12    46 1   
    32    13    14 ar  
    33    13    35 ar  
    34    13    47 1   
    35    14    15 ar  
    36    14    48 1   
    37    15    49 1   
    38    16    17 1   
    39    16    50 1   
    40    16    51 1   
    41    17    18 1   
    42    17    52 1   
    43    17    53 1   
    44    18    19 2   
    45    18    23 1   
    46    19    20 1   
    47    19    25 1   
    48    20    54 1   
    49    21    55 1   
    50    22    56 1   
    51    23    24 2   
    52    24    25 1   
    53    24    27 1   
    54    25    26 1   
    55    26    28 2   
    56    26    57 1   
    57    27    58 1   
    58    28    29 1   
    59    29    30 1   
    60    30    31 1   
    61    30    59 1   
    62    30    60 1   
    63    31    33 ar  
    64    32    61 1   
    65    33    34 1   
    66    34    62 1   
    67    34    63 1   
    68    34    64 1   
    69    35    65 1   
@<TRIPOS>SUBSTRUCTURE
     1 TK2         1 TEMP              0 ****  ****    0 ROOT
