@<TRIPOS>MOLECULE
TK3
   91    96     1     0     0
SMALL
bcc


@<TRIPOS>ATOM
      1 C29         -6.9960    -0.7310     0.0860 c6         1 TK3      -0.038000
      2 C30         -8.0860    -0.7740     1.1680 c6         1 TK3      -0.065733
      3 C31         -9.3500    -1.4530     0.6310 c6         1 TK3      -0.058033
      4 C32         -9.8740    -0.6690    -0.5740 c6         1 TK3      -0.068067
      5 C33         -8.8060    -0.6440    -1.6690 c6         1 TK3      -0.058033
      6 C34         -7.5420     0.0330    -1.1290 c6         1 TK3      -0.065733
      7 C37         -6.7020    -2.1770    -0.3530 c6         1 TK3      -0.065733
      8 C36         -9.0270    -2.8860     0.2050 c6         1 TK3      -0.068067
      9 C38         -8.4800    -2.0760    -2.0960 c6         1 TK3      -0.068067
     10 C35         -7.9590    -2.8590    -0.8900 c6         1 TK3      -0.058033
     11 C26         -5.6710    -0.1410     0.5850 c3         1 TK3      -0.099400
     12 C25         -5.6200     1.3470     0.9480 c3         1 TK3       0.240200
     13 C24         -4.2180     1.7530     1.1400 c1         1 TK3      -0.191100
     14 C23         -3.0670     2.0750     1.2910 c1         1 TK3      -0.112100
     15 C22         -1.6630     2.4420     1.4400 c3         1 TK3       0.003700
     16 C20         -0.7900     1.9740     0.2570 c3         1 TK3      -0.045700
     17 C17          0.6790     2.2930     0.5570 c5         1 TK3      -0.055700
     18 C21         -1.3060     2.5940    -1.0380 c3         1 TK3      -0.088100
     19 O03         -6.4030     1.6980     2.0670 oh         1 TK3      -0.582800
     20 C13          1.7410     1.8990    -0.4980 c5         1 TK3      -0.035000
     21 C14          3.0260     1.9590     0.3700 c5         1 TK3      -0.035500
     22 C15          2.6510     1.2260     1.6460 c5         1 TK3      -0.070400
     23 C16          1.1730     1.6050     1.8590 c5         1 TK3      -0.079400
     24 C12          1.9280     2.8810    -1.6570 c6         1 TK3      -0.063400
     25 C11          3.1980     2.5890    -2.4560 c6         1 TK3      -0.071400
     26 C09          4.4520     2.5040    -1.5780 c6         1 TK3      -0.042200
     27 C08          4.2440     1.5760    -0.4130 c2         1 TK3      -0.081400
     28 C18          1.4900     0.4810    -1.0160 c3         1 TK3      -0.080100
     29 C07          5.0070     0.5130    -0.1110 ce         1 TK3      -0.137000
     30 C06          6.1550     0.0370    -0.8610 ce         1 TK3      -0.113000
     31 C05          6.9000    -1.0460    -0.5910 c2         1 TK3      -0.104400
     32 C04          8.0320    -1.4470    -1.4920 c6         1 TK3      -0.032200
     33 C03          9.3400    -1.5940    -0.7180 c6         1 TK3       0.188800
     34 C02          9.1210    -2.5150     0.4580 c2         1 TK3      -0.200400
     35 C01          8.0110    -2.0880     1.3850 c6         1 TK3       0.188800
     36 C10          6.7090    -1.9580     0.5860 c6         1 TK3      -0.032200
     37 C28          9.8250    -3.6320     0.6070 c2         1 TK3      -0.198000
     38 O01          7.7820    -2.9810     2.4450 oh         1 TK3      -0.591800
     39 O02          9.7330    -0.3020    -0.3010 oh         1 TK3      -0.591800
     40 H1          -7.7140    -1.3180     2.0450 hc         1 TK3       0.041033
     41 H2          -8.3320     0.2350     1.5040 hc         1 TK3       0.041033
     42 H3         -10.1100    -1.4670     1.4180 hc         1 TK3       0.047700
     43 H4         -10.7930    -1.1280    -0.9500 hc         1 TK3       0.039200
     44 H5         -10.1300     0.3520    -0.2740 hc         1 TK3       0.039200
     45 H6          -9.1750    -0.0780    -2.5300 hc         1 TK3       0.047700
     46 H7          -7.7780     1.0670    -0.8550 hc         1 TK3       0.041033
     47 H8          -6.7750     0.0850    -1.9110 hc         1 TK3       0.041033
     48 H9          -5.9230    -2.1750    -1.1240 hc         1 TK3       0.041033
     49 H10         -6.3010    -2.7440     0.4950 hc         1 TK3       0.041033
     50 H11         -8.6690    -3.4630     1.0650 hc         1 TK3       0.039200
     51 H12         -9.9310    -3.3880    -0.1580 hc         1 TK3       0.039200
     52 H13         -9.3730    -2.5610    -2.5050 hc         1 TK3       0.039200
     53 H14         -7.7310    -2.0720    -2.8950 hc         1 TK3       0.039200
     54 H15         -7.7140    -3.8820    -1.1930 hc         1 TK3       0.047700
     55 H16         -5.3210    -0.7220     1.4470 hc         1 TK3       0.048700
     56 H17         -4.9230    -0.2970    -0.2000 hc         1 TK3       0.048700
     57 H18         -6.0220     1.9320     0.1150 h1         1 TK3       0.085700
     58 H19         -1.5780     3.5290     1.5430 hc         1 TK3       0.058200
     59 H20         -1.2940     2.0180     2.3760 hc         1 TK3       0.058200
     60 H21         -0.8960     0.8860     0.1880 hc         1 TK3       0.053700
     61 H22          0.7600     3.3810     0.6920 hc         1 TK3       0.045700
     62 H23         -0.8330     2.1600    -1.9160 hc         1 TK3       0.036367
     63 H24         -2.3800     2.4330    -1.1430 hc         1 TK3       0.036367
     64 H25         -1.1290     3.6720    -1.0590 hc         1 TK3       0.036367
     65 H26         -6.1870     1.0950     2.7870 ho         1 TK3       0.404000
     66 H27          3.1470     3.0220     0.6320 hc         1 TK3       0.052700
     67 H28          2.7560     0.1450     1.5280 hc         1 TK3       0.046200
     68 H29          3.2830     1.5140     2.4880 hc         1 TK3       0.046200
     69 H30          1.0550     2.2700     2.7150 hc         1 TK3       0.041200
     70 H31          0.5790     0.7140     2.0790 hc         1 TK3       0.041200
     71 H32          1.0740     2.8670    -2.3350 hc         1 TK3       0.040700
     72 H33          1.9830     3.8960    -1.2460 hc         1 TK3       0.040700
     73 H34          3.0840     1.6520    -3.0090 hc         1 TK3       0.040200
     74 H35          3.3400     3.3680    -3.2090 hc         1 TK3       0.040200
     75 H36          5.3110     2.2250    -2.1890 hc         1 TK3       0.047200
     76 H37          4.6670     3.5030    -1.1800 hc         1 TK3       0.047200
     77 H38          1.2760    -0.2220    -0.2080 hc         1 TK3       0.034700
     78 H39          0.6360     0.4580    -1.6960 hc         1 TK3       0.034700
     79 H40          2.3490     0.0860    -1.5580 hc         1 TK3       0.034700
     80 H41          4.7280    -0.0600     0.7650 ha         1 TK3       0.122000
     81 H42          6.4280     0.5970    -1.7500 ha         1 TK3       0.120000
     82 H43          7.8120    -2.4170    -1.9510 hc         1 TK3       0.058450
     83 H44          8.1590    -0.7280    -2.3050 hc         1 TK3       0.058450
     84 H45         10.0940    -2.0400    -1.3800 h1         1 TK3       0.042700
     85 H46          8.2590    -1.0890     1.7730 h1         1 TK3       0.042700
     86 H47          5.9160    -1.6160     1.2510 hc         1 TK3       0.058450
     87 H48          6.4290    -2.9570     0.2290 hc         1 TK3       0.058450
     88 H49          9.6590    -4.3250     1.4210 ha         1 TK3       0.117500
     89 H50         10.6010    -3.8970    -0.1000 ha         1 TK3       0.117500
     90 H51          8.5500    -2.9690     3.0250 ho         1 TK3       0.402500
     91 H52         10.5650    -0.3810     0.1770 ho         1 TK3       0.402500
@<TRIPOS>BOND
     1     1     2 1   
     2     1     6 1   
     3     1     7 1   
     4     1    11 1   
     5     2     3 1   
     6     2    40 1   
     7     2    41 1   
     8     3     4 1   
     9     3     8 1   
    10     3    42 1   
    11     4     5 1   
    12     4    43 1   
    13     4    44 1   
    14     5     6 1   
    15     5     9 1   
    16     5    45 1   
    17     6    46 1   
    18     6    47 1   
    19     7    10 1   
    20     7    48 1   
    21     7    49 1   
    22     8    10 1   
    23     8    50 1   
    24     8    51 1   
    25     9    10 1   
    26     9    52 1   
    27     9    53 1   
    28    10    54 1   
    29    11    12 1   
    30    11    55 1   
    31    11    56 1   
    32    12    13 1   
    33    12    19 1   
    34    12    57 1   
    35    13    14 3   
    36    14    15 1   
    37    15    16 1   
    38    15    58 1   
    39    15    59 1   
    40    16    17 1   
    41    16    18 1   
    42    16    60 1   
    43    17    20 1   
    44    17    23 1   
    45    17    61 1   
    46    18    62 1   
    47    18    63 1   
    48    18    64 1   
    49    19    65 1   
    50    20    21 1   
    51    20    24 1   
    52    20    28 1   
    53    21    22 1   
    54    21    27 1   
    55    21    66 1   
    56    22    23 1   
    57    22    67 1   
    58    22    68 1   
    59    23    69 1   
    60    23    70 1   
    61    24    25 1   
    62    24    71 1   
    63    24    72 1   
    64    25    26 1   
    65    25    73 1   
    66    25    74 1   
    67    26    27 1   
    68    26    75 1   
    69    26    76 1   
    70    27    29 2   
    71    28    77 1   
    72    28    78 1   
    73    28    79 1   
    74    29    30 1   
    75    29    80 1   
    76    30    31 2   
    77    30    81 1   
    78    31    32 1   
    79    31    36 1   
    80    32    33 1   
    81    32    82 1   
    82    32    83 1   
    83    33    34 1   
    84    33    39 1   
    85    33    84 1   
    86    34    35 1   
    87    34    37 2   
    88    35    36 1   
    89    35    38 1   
    90    35    85 1   
    91    36    86 1   
    92    36    87 1   
    93    37    88 1   
    94    37    89 1   
    95    38    90 1   
    96    39    91 1   
@<TRIPOS>SUBSTRUCTURE
     1 TK3         1 TEMP              0 ****  ****    0 ROOT
