@<TRIPOS>MOLECULE
TK3
   91    96     1     0     0
SMALL
No Charge or Current Charge


@<TRIPOS>ATOM
      1 C29         -7.2830    -0.5490    -0.0290 c6         1 TK3      -0.038000
      2 C30         -8.0790    -1.2300     1.1350 c6         1 TK3      -0.065733
      3 C31         -9.5280    -1.5760     0.6830 c6         1 TK3      -0.058033
      4 C32        -10.2620    -0.2700     0.2640 c6         1 TK3      -0.068067
      5 C33         -9.5000     0.4030    -0.9140 c6         1 TK3      -0.058033
      6 C34         -8.0500     0.7470    -0.4620 c6         1 TK3      -0.065733
      7 C37         -7.2690    -1.5330    -1.2480 c6         1 TK3      -0.065733
      8 C36         -9.4760    -2.5520    -0.5260 c6         1 TK3      -0.068067
      9 C38         -9.4490    -0.5750    -2.1220 c6         1 TK3      -0.068067
     10 C35         -8.7150    -1.8800    -1.7030 c6         1 TK3      -0.058033
     11 C26         -5.7950    -0.2290     0.3670 c3         1 TK3      -0.099400
     12 C25         -5.5350     0.7240     1.5720 c3         1 TK3       0.263400
     13 C24         -4.1680     1.2560     1.5450 c1         1 TK3      -0.191100
     14 C23         -3.0380     1.6830     1.4850 c1         1 TK3      -0.112100
     15 C22         -1.6600     2.1850     1.3690 c3         1 TK3       0.003700
     16 C20         -0.8500     1.5500     0.1920 c3         1 TK3      -0.045700
     17 C17          0.6910     1.8430     0.3220 c5         1 TK3      -0.055700
     18 C21         -1.4590     1.9720    -1.1730 c3         1 TK3      -0.088100
     19 O03         -5.7060     0.0260     2.8050 oh         1 TK3      -0.645000
     20 C13          1.6920     1.2810    -0.7690 c5         1 TK3      -0.035000
     21 C14          3.0220     1.6310    -0.0140 c5         1 TK3      -0.035500
     22 C15          2.7990     0.9420     1.3600 c5         1 TK3      -0.070400
     23 C16          1.3090     1.2900     1.6670 c5         1 TK3      -0.079400
     24 C12          1.7110     2.0410    -2.1380 c6         1 TK3      -0.063400
     25 C11          2.9170     1.6240    -3.0230 c6         1 TK3      -0.071400
     26 C09          4.2780     1.7490    -2.2900 c6         1 TK3      -0.042200
     27 C08          4.2380     1.1910    -0.8620 c2         1 TK3      -0.081400
     28 C18          1.4730    -0.2490    -1.0450 c3         1 TK3      -0.080100
     29 C07          5.2160     0.4480    -0.2700 ce         1 TK3      -0.187000
     30 C06          6.4830     0.0280    -0.9050 ce         1 TK3      -0.163000
     31 C05          7.3780    -0.8700    -0.4180 c2         1 TK3      -0.104400
     32 C04          8.6680    -1.1950    -1.1700 c6         1 TK3      -0.032200
     33 C03          9.9320    -1.0500    -0.2800 c6         1 TK3       0.212000
     34 C02          9.7790    -1.7780     1.0540 c2         1 TK3      -0.200400
     35 C01          8.4710    -1.4540     1.7960 c6         1 TK3       0.212000
     36 C10          7.2420    -1.6710     0.8800 c6         1 TK3      -0.032200
     37 C28         10.7340    -2.6200     1.5030 c2         1 TK3      -0.298000
     38 O01          8.3340    -2.2410     2.9830 oh         1 TK3      -0.654000
     39 O02         10.2190     0.3250    -0.0230 oh         1 TK3      -0.654000
     40 H1          -7.5620    -2.1400     1.4700 hc         1 TK3       0.041033
     41 H2          -8.1330    -0.5650     2.0070 hc         1 TK3       0.041033
     42 H3         -10.0680    -2.0500     1.5140 hc         1 TK3       0.047700
     43 H4         -11.2960    -0.4950    -0.0330 hc         1 TK3       0.039200
     44 H5         -10.3280     0.4190     1.1170 hc         1 TK3       0.039200
     45 H6         -10.0210     1.3240    -1.2100 hc         1 TK3       0.047700
     46 H7          -8.0970     1.4670     0.3660 hc         1 TK3       0.041033
     47 H8          -7.5150     1.2520    -1.2790 hc         1 TK3       0.041033
     48 H9          -6.7150    -1.0910    -2.0880 hc         1 TK3       0.041033
     49 H10         -6.7350    -2.4570    -0.9850 hc         1 TK3       0.041033
     50 H11         -8.9800    -3.4880    -0.2370 hc         1 TK3       0.039200
     51 H12        -10.4940    -2.8240    -0.8380 hc         1 TK3       0.039200
     52 H13        -10.4660    -0.8050    -2.4670 hc         1 TK3       0.039200
     53 H14         -8.9320    -0.1040    -2.9700 hc         1 TK3       0.039200
     54 H15         -8.6770    -2.5700    -2.5580 hc         1 TK3       0.047700
     55 H16         -5.2530    -1.1660     0.5480 hc         1 TK3       0.048700
     56 H17         -5.3110     0.2130    -0.5140 hc         1 TK3       0.048700
     57 H18         -6.2210     1.5790     1.5160 h1         1 TK3       0.085700
     58 H19         -1.6850     3.2750     1.2540 hc         1 TK3       0.058200
     59 H20         -1.1680     1.9850     2.3270 hc         1 TK3       0.058200
     60 H21         -0.9860     0.4640     0.2690 hc         1 TK3       0.053700
     61 H22          0.7650     2.9380     0.3290 hc         1 TK3       0.045700
     62 H23         -1.1490     1.2830    -1.9650 hc         1 TK3       0.036367
     63 H24         -2.5540     1.9430    -1.1600 hc         1 TK3       0.036367
     64 H25         -1.1540     2.9900    -1.4420 hc         1 TK3       0.036367
     65 H26         -4.9020    -0.5240     2.9120 ho         1 TK3       0.443000
     66 H27          3.1040     2.7150     0.1390 hc         1 TK3       0.052700
     67 H28          2.9410    -0.1440     1.3170 hc         1 TK3       0.046200
     68 H29          3.4770     1.3250     2.1310 hc         1 TK3       0.046200
     69 H30          1.2370     2.0370     2.4660 hc         1 TK3       0.041200
     70 H31          0.7800     0.3990     2.0270 hc         1 TK3       0.041200
     71 H32          0.7950     1.8650    -2.7110 hc         1 TK3       0.040700
     72 H33          1.7540     3.1240    -1.9580 hc         1 TK3       0.040700
     73 H34          2.7850     0.5910    -3.3710 hc         1 TK3       0.040200
     74 H35          2.9350     2.2400    -3.9330 hc         1 TK3       0.040200
     75 H36          5.0400     1.2580    -2.9050 hc         1 TK3       0.047200
     76 H37          4.5610     2.8090    -2.2400 hc         1 TK3       0.047200
     77 H38          1.2550    -0.8180    -0.1340 hc         1 TK3       0.034700
     78 H39          0.6240    -0.4100    -1.7200 hc         1 TK3       0.034700
     79 H40          2.3500    -0.7160    -1.5070 hc         1 TK3       0.034700
     80 H41          5.1100     0.1500     0.7670 ha         1 TK3       0.172000
     81 H42          6.7250     0.5100    -1.8510 ha         1 TK3       0.170000
     82 H43          8.6110    -2.2290    -1.5360 hc         1 TK3       0.058450
     83 H44          8.7740    -0.5660    -2.0640 hc         1 TK3       0.058450
     84 H45         10.7740    -1.4940    -0.8330 h1         1 TK3       0.042700
     85 H46          8.4920    -0.3890     2.0720 h1         1 TK3       0.042700
     86 H47          6.3300    -1.4280     1.4340 hc         1 TK3       0.058450
     87 H48          7.1610    -2.7380     0.6310 hc         1 TK3       0.058450
     88 H49         10.6530    -3.1630     2.4450 ha         1 TK3       0.167500
     89 H50         11.6420    -2.8090     0.9290 ha         1 TK3       0.167500
     90 H51          9.1260    -2.0430     3.5260 ho         1 TK3       0.441500
     91 H52         10.9640     0.3260     0.6160 ho         1 TK3       0.441500
@<TRIPOS>BOND
     1     1     2 1   
     2     1     6 1   
     3     1     7 1   
     4     1    11 1   
     5     2     3 1   
     6     2    40 1   
     7     2    41 1   
     8     3     4 1   
     9     3     8 1   
    10     3    42 1   
    11     4     5 1   
    12     4    43 1   
    13     4    44 1   
    14     5     6 1   
    15     5     9 1   
    16     5    45 1   
    17     6    46 1   
    18     6    47 1   
    19     7    10 1   
    20     7    48 1   
    21     7    49 1   
    22     8    10 1   
    23     8    50 1   
    24     8    51 1   
    25     9    10 1   
    26     9    52 1   
    27     9    53 1   
    28    10    54 1   
    29    11    12 1   
    30    11    55 1   
    31    11    56 1   
    32    12    13 1   
    33    12    19 1   
    34    12    57 1   
    35    13    14 3   
    36    14    15 1   
    37    15    16 1   
    38    15    58 1   
    39    15    59 1   
    40    16    17 1   
    41    16    18 1   
    42    16    60 1   
    43    17    20 1   
    44    17    23 1   
    45    17    61 1   
    46    18    62 1   
    47    18    63 1   
    48    18    64 1   
    49    19    65 1   
    50    20    21 1   
    51    20    24 1   
    52    20    28 1   
    53    21    22 1   
    54    21    27 1   
    55    21    66 1   
    56    22    23 1   
    57    22    67 1   
    58    22    68 1   
    59    23    69 1   
    60    23    70 1   
    61    24    25 1   
    62    24    71 1   
    63    24    72 1   
    64    25    26 1   
    65    25    73 1   
    66    25    74 1   
    67    26    27 1   
    68    26    75 1   
    69    26    76 1   
    70    27    29 2   
    71    28    77 1   
    72    28    78 1   
    73    28    79 1   
    74    29    30 1   
    75    29    80 1   
    76    30    31 2   
    77    30    81 1   
    78    31    32 1   
    79    31    36 1   
    80    32    33 1   
    81    32    82 1   
    82    32    83 1   
    83    33    34 1   
    84    33    39 1   
    85    33    84 1   
    86    34    35 1   
    87    34    37 2   
    88    35    36 1   
    89    35    38 1   
    90    35    85 1   
    91    36    86 1   
    92    36    87 1   
    93    37    88 1   
    94    37    89 1   
    95    38    90 1   
    96    39    91 1   
@<TRIPOS>SUBSTRUCTURE
     1 TK3         1 TEMP              0 ****  ****    0 ROOT
