@<TRIPOS>MOLECULE
TK4
   31    32     1     0     0
SMALL
abcg2


@<TRIPOS>ATOM
      1 C1          -0.3850     0.0050     1.2110 ca         1 TK4      -0.283500
      2 C2           0.9890     0.0390     1.4360 ca         1 TK4       0.046000
      3 C3           1.8610     0.0350     0.3180 ca         1 TK4      -0.176000
      4 C4           1.3870     0.0040    -0.9540 ca         1 TK4      -0.039000
      5 C5          -0.5070    -0.0570    -2.5640 ca         1 TK4      -0.207500
      6 C6          -1.8540    -0.0910    -2.7930 ca         1 TK4      -0.062000
      7 C7          -2.7430    -0.0980    -1.7080 ca         1 TK4      -0.144000
      8 C8          -2.2900    -0.0680    -0.4200 ca         1 TK4      -0.078000
      9 C9          -0.8980    -0.0300    -0.1280 ca         1 TK4       0.040000
     10 C10          0.0010    -0.0280    -1.2340 ca         1 TK4       0.003000
     11 S1          -1.5990     0.0070     2.5580 s6         1 TK4       1.273100
     12 O11         -2.4090     1.2160     2.3560 o          1 TK4      -0.700533
     13 O12         -2.3420    -1.2520     2.4150 o          1 TK4      -0.700533
     14 O13         -0.8420     0.0600     3.8340 o          1 TK4      -0.700533
     15 N2           1.5050     0.0760     2.7240 ns         1 TK4      -0.169000
     16 C21          2.7930     0.1110     3.1660 c          1 TK4       0.610100
     17 O2           3.7840     0.1100     2.4570 o          1 TK4      -0.633100
     18 C22          2.8800     0.1550     4.6730 c3         1 TK4      -0.179100
     19 S5           0.5920    -0.0480    -3.9910 s6         1 TK4       1.266100
     20 O51          1.3690     1.1990    -3.8770 o          1 TK4      -0.706867
     21 O52          1.4130    -1.2650    -3.8570 o          1 TK4      -0.706867
     22 O53         -0.2900    -0.0740    -5.1690 o          1 TK4      -0.706867
     23 H3           2.9250     0.0590     0.4770 ha         1 TK4       0.127000
     24 H4           2.1090     0.0030    -1.7540 ha         1 TK4       0.134000
     25 H6          -2.2400    -0.1130    -3.8020 ha         1 TK4       0.121000
     26 H7          -3.8090    -0.1260    -1.8940 ha         1 TK4       0.080000
     27 H8          -3.0260    -0.0740     0.3630 ha         1 TK4       0.126000
     28 HN2          0.7770     0.0810     3.4430 hn         1 TK4       0.215000
     29 H221         3.9190     0.1660     4.9910 hc         1 TK4       0.050033
     30 H222         2.3860     1.0470     5.0620 hc         1 TK4       0.050033
     31 H223         2.3860    -0.7110     5.1170 hc         1 TK4       0.050033
@<TRIPOS>BOND
     1     1     2 ar  
     2     1     9 ar  
     3     1    11 1   
     4     2     3 ar  
     5     2    15 1   
     6     3     4 ar  
     7     3    23 1   
     8     4    10 ar  
     9     4    24 1   
    10     5     6 ar  
    11     5    10 ar  
    12     5    19 1   
    13     6     7 ar  
    14     6    25 1   
    15     7     8 ar  
    16     7    26 1   
    17     8     9 ar  
    18     8    27 1   
    19     9    10 ar  
    20    11    12 1   
    21    11    13 1   
    22    11    14 1   
    23    15    16 1   
    24    15    28 1   
    25    16    17 2   
    26    16    18 1   
    27    18    29 1   
    28    18    30 1   
    29    18    31 1   
    30    19    20 1   
    31    19    21 1   
    32    19    22 1   
@<TRIPOS>SUBSTRUCTURE
     1 TK4         1 TEMP              0 ****  ****    0 ROOT
