@<TRIPOS>MOLECULE
TK4
   31    32     1     0     0
SMALL
No Charge or Current Charge


@<TRIPOS>ATOM
      1 C1          -0.4250     0.0520     1.2130 ca         1 TK4      -0.283500
      2 C2           0.9900     0.1110     1.4240 ca         1 TK4       0.046000
      3 C3           1.8520     0.1650     0.3180 ca         1 TK4      -0.176000
      4 C4           1.3700     0.1220    -0.9880 ca         1 TK4      -0.039000
      5 C5          -0.4930    -0.0510    -2.6010 ca         1 TK4      -0.207500
      6 C6          -1.8820    -0.1670    -2.8180 ca         1 TK4      -0.062000
      7 C7          -2.7690    -0.2210    -1.7450 ca         1 TK4      -0.144000
      8 C8          -2.2970    -0.1530    -0.4310 ca         1 TK4      -0.078000
      9 C9          -0.9120    -0.0260    -0.1430 ca         1 TK4       0.040000
     10 C10         -0.0090     0.0140    -1.2520 ca         1 TK4       0.003000
     11 S1          -1.6540     0.0640     2.6540 s6         1 TK4       1.273100
     12 O11         -2.5150     1.2030     2.3020 o          1 TK4      -0.700533
     13 O12         -2.2720    -1.2630     2.5190 o          1 TK4      -0.700533
     14 O13         -0.8370     0.2550     3.8590 o          1 TK4      -0.700533
     15 N2           1.5500     0.1480     2.7310 ns         1 TK4      -0.169000
     16 C21          2.8110    -0.1350     3.2300 c          1 TK4       0.610100
     17 O2           3.7520    -0.5570     2.5650 o          1 TK4      -0.633100
     18 C22          2.9460     0.1000     4.7330 c3         1 TK4      -0.179100
     19 S5           0.6340     0.0060    -4.1000 s6         1 TK4       1.266100
     20 O51          1.2960     1.3080    -3.9300 o          1 TK4      -0.706867
     21 O52          1.4890    -1.1710    -3.8810 o          1 TK4      -0.706867
     22 O53         -0.3000    -0.0890    -5.2330 o          1 TK4      -0.706867
     23 H3           2.9250     0.2600     0.4480 ha         1 TK4       0.127000
     24 H4           2.1060     0.1700    -1.7820 ha         1 TK4       0.134000
     25 H6          -2.2900    -0.2220    -3.8240 ha         1 TK4       0.121000
     26 H7          -3.8360    -0.3170    -1.9310 ha         1 TK4       0.080000
     27 H8          -3.0510    -0.2130     0.3420 ha         1 TK4       0.126000
     28 HN2          0.8860     0.4190     3.4460 hn         1 TK4       0.215000
     29 H221         3.9450    -0.1420     5.1140 hc         1 TK4       0.050033
     30 H222         2.6670     1.1360     4.9590 hc         1 TK4       0.050033
     31 H223         2.1660    -0.4670     5.2550 hc         1 TK4       0.050033
@<TRIPOS>BOND
     1     1     2 ar  
     2     1     9 ar  
     3     1    11 1   
     4     2     3 ar  
     5     2    15 1   
     6     3     4 ar  
     7     3    23 1   
     8     4    10 ar  
     9     4    24 1   
    10     5     6 ar  
    11     5    10 ar  
    12     5    19 1   
    13     6     7 ar  
    14     6    25 1   
    15     7     8 ar  
    16     7    26 1   
    17     8     9 ar  
    18     8    27 1   
    19     9    10 ar  
    20    11    12 1   
    21    11    13 1   
    22    11    14 1   
    23    15    16 1   
    24    15    28 1   
    25    16    17 2   
    26    16    18 1   
    27    18    29 1   
    28    18    30 1   
    29    18    31 1   
    30    19    20 1   
    31    19    21 1   
    32    19    22 1   
@<TRIPOS>SUBSTRUCTURE
     1 TK4         1 TEMP              0 ****  ****    0 ROOT
