@<TRIPOS>MOLECULE
TK5
   92    96     1     0     0
SMALL
No Charge or Current Charge


@<TRIPOS>ATOM
      1 N1           1.4820    -6.3060   -14.5480 ns         1 TK5      -0.497900
      2 C7           3.0160    -9.8240   -14.4380 c6         1 TK5      -0.101400
      3 C8           2.7880    -8.3400   -14.0580 c6         1 TK5      -0.088400
      4 N2           2.0640    -9.4160   -16.7160 n3         1 TK5      -0.761500
      5 C9           0.2780    -3.8560   -12.7550 c3         1 TK5      -0.088400
      6 O1           0.2660   -10.0770   -18.4230 o          1 TK5      -0.533000
      7 C1           0.4770    -4.0470   -14.2870 c3         1 TK5       0.037700
      8 C5          -0.5310   -10.1080   -15.8750 c3         1 TK5      -0.377100
      9 C6           3.2200    -9.9700   -15.9640 c6         1 TK5       0.208800
     10 N3          -4.5820     0.6590   -19.6300 ns         1 TK5      -0.501900
     11 C4           1.7870    -7.9900   -16.3780 c6         1 TK5       0.191800
     12 O4          -5.9180    -1.1300   -20.0610 o          1 TK5      -0.649100
     13 C3           1.5970    -7.7400   -14.8460 c6         1 TK5       0.083700
     14 O3          -0.6650    -6.0010   -15.2280 o          1 TK5      -0.609100
     15 C2           0.3530    -5.5370   -14.7280 c          1 TK5       0.594100
     16 N4          -5.9640    -1.9980   -22.9390 nv         1 TK5      -1.076000
     17 C24         -5.1450    -0.2750   -20.4660 c          1 TK5       0.668700
     18 C25         -4.7350    -0.1390   -21.8660 cc         1 TK5      -0.376600
     19 C33         -3.8610     0.8320   -22.4040 cc         1 TK5       0.303900
     20 N6          -3.6620     0.7420   -23.7070 nd         1 TK5      -0.513800
     21 N5          -4.4530    -0.3530   -24.0020 na         1 TK5       0.160000
     22 C27         -4.6570    -0.9200   -25.2610 ca         1 TK5       0.016800
     23 C32         -5.6190    -0.3760   -26.1350 ca         1 TK5      -0.106500
     24 C31         -5.8240    -0.9450   -27.4040 ca         1 TK5      -0.100000
     25 C30         -5.0660    -2.0580   -27.8060 ca         1 TK5      -0.105000
     26 C29         -4.1020    -2.6020   -26.9400 ca         1 TK5      -0.100000
     27 C28         -3.8960    -2.0330   -25.6710 ca         1 TK5      -0.106500
     28 C26         -5.1250    -0.9160   -22.9010 cd         1 TK5       0.341000
     29 C22         -3.6750     0.0440   -17.4220 ca         1 TK5      -0.086300
     30 C19         -3.7210    -1.3380   -17.1690 ca         1 TK5      -0.100500
     31 C18         -2.6810    -1.9730   -16.4670 ca         1 TK5      -0.073000
     32 C21         -2.5720     0.7880   -16.9680 ca         1 TK5      -0.100500
     33 C20         -1.5300     0.1580   -16.2660 ca         1 TK5      -0.073000
     34 C17         -1.5670    -1.2310   -16.0040 ca         1 TK5      -0.149600
     35 O            0.5360    -1.2310   -14.8420 o          1 TK5      -0.610100
     36 N           -0.5140    -3.2320   -15.0240 ns         1 TK5      -0.500900
     37 C10          1.2850    -4.5950   -11.8330 c3         1 TK5      -0.072400
     38 C11          2.7980    -4.2620   -12.0360 c6         1 TK5      -0.058700
     39 C16          3.6830    -5.1740   -11.1410 c6         1 TK5      -0.074400
     40 C15          5.1900    -4.8760   -11.3360 c6         1 TK5      -0.072900
     41 C14          5.5030    -3.3840   -11.0680 c6         1 TK5      -0.075400
     42 C13          4.6310    -2.4650   -11.9550 c6         1 TK5      -0.072900
     43 C12          3.1220    -2.7630   -11.7670 c6         1 TK5      -0.074400
     44 S            0.7330   -10.4580   -17.0860 s6         1 TK5       1.220100
     45 O2           1.1890   -11.8300   -16.8490 o          1 TK5      -0.533000
     46 H1           2.2820    -5.8420   -14.1360 hn         1 TK5       0.321500
     47 H2           3.8990   -10.2110   -13.9100 hc         1 TK5       0.052700
     48 H3           2.1650   -10.4360   -14.1110 hc         1 TK5       0.052700
     49 H4           2.6040    -8.2550   -12.9780 hc         1 TK5       0.052200
     50 H5           3.7020    -7.7660   -14.2660 hc         1 TK5       0.052200
     51 H6           0.3070    -2.7860   -12.5200 hc         1 TK5       0.060200
     52 H7          -0.7340    -4.1900   -12.4930 hc         1 TK5       0.060200
     53 H8           1.4810    -3.7050   -14.5710 h1         1 TK5       0.084700
     54 H9          -1.3670   -10.7830   -16.0800 h1         1 TK5       0.101367
     55 H10         -0.1080   -10.3020   -14.8850 h1         1 TK5       0.101367
     56 H11         -0.8360    -9.0640   -15.9940 h1         1 TK5       0.101367
     57 H12          4.1310    -9.4170   -16.2390 h1         1 TK5       0.071200
     58 H13          3.4190   -11.0210   -16.2210 h1         1 TK5       0.071200
     59 H14         -3.9490     1.3270   -20.0470 hn         1 TK5       0.313500
     60 H15          0.9080    -7.6190   -16.9260 h1         1 TK5       0.076200
     61 H16          2.6340    -7.3740   -16.7120 h1         1 TK5       0.076200
     62 H17          0.6750    -8.2270   -14.5020 h1         1 TK5       0.076700
     63 H18         -6.4940    -2.2280   -22.0980 hn         1 TK5       0.496000
     64 H19         -6.3100    -2.3490   -23.8300 hn         1 TK5       0.496000
     65 H20         -3.3550     1.6250   -21.8700 h4         1 TK5       0.031100
     66 H21         -6.2060     0.4880   -25.8280 ha         1 TK5       0.128000
     67 H22         -6.5690    -0.5220   -28.0760 ha         1 TK5       0.120000
     68 H23         -5.2250    -2.4980   -28.7890 ha         1 TK5       0.118000
     69 H24         -3.5140    -3.4630   -27.2530 ha         1 TK5       0.120000
     70 H25         -3.1480    -2.4570   -25.0040 ha         1 TK5       0.128000
     71 H26         -4.8640     1.7800   -17.8890 h1         1 TK5       0.058700
     72 H27         -5.7620     0.2550   -17.9300 h1         1 TK5       0.058700
     73 H28         -4.5680    -1.9250   -17.5200 ha         1 TK5       0.119500
     74 H29         -2.7620    -3.0430   -16.2950 ha         1 TK5       0.125500
     75 H30         -2.5190     1.8580   -17.1580 ha         1 TK5       0.119500
     76 H31         -0.6890     0.7580   -15.9250 ha         1 TK5       0.125500
     77 H32         -1.3240    -3.7060   -15.4030 hn         1 TK5       0.337500
     78 H33          1.0080    -4.3710   -10.7950 hc         1 TK5       0.044200
     79 H34          1.1260    -5.6740   -11.9410 hc         1 TK5       0.044200
     80 H35          3.0450    -4.4820   -13.0820 hc         1 TK5       0.029700
     81 H36          3.4160    -5.0330   -10.0840 hc         1 TK5       0.041950
     82 H37          3.4890    -6.2300   -11.3720 hc         1 TK5       0.041950
     83 H38          5.4900    -5.1400   -12.3600 hc         1 TK5       0.038450
     84 H39          5.7850    -5.5080   -10.6630 hc         1 TK5       0.038450
     85 H40          6.5670    -3.1860   -11.2570 hc         1 TK5       0.039200
     86 H41          5.3250    -3.1530   -10.0080 hc         1 TK5       0.039200
     87 H42          4.9050    -2.6020   -13.0110 hc         1 TK5       0.038450
     88 H43          4.8350    -1.4130   -11.7150 hc         1 TK5       0.038450
     89 H44          2.8180    -2.4920   -10.7460 hc         1 TK5       0.041950
     90 H45          2.5470    -2.1200   -12.4460 hc         1 TK5       0.041950
     91 C           -0.4240    -1.8740   -15.2420 c          1 TK5       0.617700
     92 C23         -4.8020     0.7240   -18.1850 c3         1 TK5       0.153300
@<TRIPOS>BOND
     1     1    13 1   
     2     1    15 1   
     3     1    46 1   
     4     2     3 1   
     5     2     9 1   
     6     2    47 1   
     7     2    48 1   
     8     3    13 1   
     9     3    49 1   
    10     3    50 1   
    11     4     9 1   
    12     4    11 1   
    13     4    44 1   
    14     5     7 1   
    15     5    37 1   
    16     5    51 1   
    17     5    52 1   
    18     6    44 2   
    19     7    15 1   
    20     7    36 1   
    21     7    53 1   
    22     8    44 1   
    23     8    54 1   
    24     8    55 1   
    25     8    56 1   
    26     9    57 1   
    27     9    58 1   
    28    10    17 1   
    29    10    59 1   
    30    10    92 1   
    31    11    13 1   
    32    11    60 1   
    33    11    61 1   
    34    12    17 2   
    35    13    62 1   
    36    14    15 2   
    37    16    28 1   
    38    16    63 1   
    39    16    64 1   
    40    17    18 1   
    41    18    19 1   
    42    18    28 2   
    43    19    20 2   
    44    19    65 1   
    45    20    21 1   
    46    21    22 1   
    47    21    28 1   
    48    22    23 ar  
    49    22    27 ar  
    50    23    24 ar  
    51    23    66 1   
    52    24    25 ar  
    53    24    67 1   
    54    25    26 ar  
    55    25    68 1   
    56    26    27 ar  
    57    26    69 1   
    58    27    70 1   
    59    29    30 ar  
    60    29    32 ar  
    61    29    92 1   
    62    30    31 ar  
    63    30    73 1   
    64    31    34 ar  
    65    31    74 1   
    66    32    33 ar  
    67    32    75 1   
    68    33    34 ar  
    69    33    76 1   
    70    34    91 1   
    71    35    91 2   
    72    36    77 1   
    73    36    91 1   
    74    37    38 1   
    75    37    78 1   
    76    37    79 1   
    77    38    39 1   
    78    38    43 1   
    79    38    80 1   
    80    39    40 1   
    81    39    81 1   
    82    39    82 1   
    83    40    41 1   
    84    40    83 1   
    85    40    84 1   
    86    41    42 1   
    87    41    85 1   
    88    41    86 1   
    89    42    43 1   
    90    42    87 1   
    91    42    88 1   
    92    43    89 1   
    93    43    90 1   
    94    44    45 2   
    95    71    92 1   
    96    72    92 1   
@<TRIPOS>SUBSTRUCTURE
     1 TK5         1 TEMP              0 ****  ****    0 ROOT
