@<TRIPOS>MOLECULE
TK5
   92    96     1     0     0
SMALL
abcg2


@<TRIPOS>ATOM
      1 N1           1.1520    -6.2530   -14.5700 ns         1 TK5      -0.497900
      2 C7           2.6920    -9.7010   -14.4420 c6         1 TK5      -0.101400
      3 C8           2.6090    -8.1880   -14.2930 c6         1 TK5      -0.088400
      4 N2           0.9300    -9.6120   -16.1770 n3         1 TK5      -0.761500
      5 C9           0.5440    -3.6020   -12.6130 c3         1 TK5      -0.088400
      6 O1          -1.4560    -9.8820   -16.8660 o          1 TK5      -0.533000
      7 C1           0.2980    -4.0450   -14.0620 c3         1 TK5       0.037700
      8 C5          -0.9220   -10.7520   -14.4600 c3         1 TK5      -0.377100
      9 C6           2.2520   -10.1360   -15.8310 c6         1 TK5       0.208800
     10 N3          -5.4170     0.0540   -19.2510 ns         1 TK5      -0.501900
     11 C4           0.7920    -8.1710   -16.0310 c6         1 TK5       0.191800
     12 O4          -5.2740    -2.0310   -20.0910 o          1 TK5      -0.649100
     13 C3           1.2080    -7.6950   -14.6350 c6         1 TK5       0.083700
     14 O3          -0.9500    -6.0640   -13.7520 o          1 TK5      -0.609100
     15 C2           0.0980    -5.5560   -14.1240 c          1 TK5       0.594100
     16 N4          -4.4420    -2.3440   -22.8410 nv         1 TK5      -1.076000
     17 C24         -5.1720    -0.8150   -20.2550 c          1 TK5       0.668700
     18 C25         -4.7960    -0.2490   -21.5430 cc         1 TK5      -0.376600
     19 C33         -4.6090     1.0880   -21.9630 cc         1 TK5       0.303900
     20 N6          -4.2610     1.1700   -23.2180 nd         1 TK5      -0.513800
     21 N5          -4.2160    -0.1150   -23.6570 na         1 TK5       0.160000
     22 C27         -3.8190    -0.3890   -24.9850 ca         1 TK5       0.016800
     23 C32         -4.6550    -1.1090   -25.8280 ca         1 TK5      -0.106500
     24 C31         -4.2460    -1.3820   -27.1270 ca         1 TK5      -0.100000
     25 C30         -3.0210    -0.9200   -27.5850 ca         1 TK5      -0.105000
     26 C29         -2.1990    -0.1840   -26.7410 ca         1 TK5      -0.100000
     27 C28         -2.5910     0.0780   -25.4370 ca         1 TK5      -0.106500
     28 C26         -4.5180    -1.0040   -22.6860 cd         1 TK5       0.341000
     29 C22         -4.4550    -0.9070   -17.2000 ca         1 TK5      -0.086300
     30 C19         -4.3120    -2.2510   -16.8800 ca         1 TK5      -0.100500
     31 C18         -3.1620    -2.7150   -16.2580 ca         1 TK5      -0.073000
     32 C21         -3.4170    -0.0320   -16.8840 ca         1 TK5      -0.100500
     33 C20         -2.2640    -0.4910   -16.2740 ca         1 TK5      -0.073000
     34 C17         -2.1250    -1.8390   -15.9480 ca         1 TK5      -0.149600
     35 O            0.1970    -1.6530   -15.5140 o          1 TK5      -0.610100
     36 N           -0.8800    -3.4250   -14.6220 ns         1 TK5      -0.500900
     37 C10          1.7880    -4.2020   -11.9610 c3         1 TK5      -0.072400
     38 C11          3.1150    -3.9340   -12.6740 c6         1 TK5      -0.058700
     39 C16          4.2600    -4.6460   -11.9530 c6         1 TK5      -0.074400
     40 C15          5.5990    -4.4150   -12.6430 c6         1 TK5      -0.072900
     41 C14          5.9000    -2.9270   -12.7830 c6         1 TK5      -0.075400
     42 C13          4.7650    -2.2060   -13.5020 c6         1 TK5      -0.072900
     43 C12          3.4230    -2.4440   -12.8160 c6         1 TK5      -0.074400
     44 S           -0.3950   -10.5800   -16.1540 s6         1 TK5       1.220100
     45 O2           0.0250   -11.8930   -16.6200 o          1 TK5      -0.533000
     46 H1           1.9480    -5.7470   -14.9280 hn         1 TK5       0.321500
     47 H2           3.7160   -10.0400   -14.2740 hc         1 TK5       0.052700
     48 H3           2.0720   -10.1860   -13.6820 hc         1 TK5       0.052700
     49 H4           2.8700    -7.8840   -13.2770 hc         1 TK5       0.052200
     50 H5           3.3340    -7.7150   -14.9670 hc         1 TK5       0.052200
     51 H6           0.6040    -2.5120   -12.6090 hc         1 TK5       0.060200
     52 H7          -0.3350    -3.8610   -12.0180 hc         1 TK5       0.060200
     53 H8           1.1460    -3.7500   -14.6820 h1         1 TK5       0.084700
     54 H9          -1.7930   -11.4050   -14.4430 h1         1 TK5       0.101367
     55 H10         -0.1200   -11.1920   -13.8710 h1         1 TK5       0.101367
     56 H11         -1.1890    -9.7750   -14.0610 h1         1 TK5       0.101367
     57 H12          2.9520    -9.7500   -16.5770 h1         1 TK5       0.071200
     58 H13          2.2560   -11.2200   -15.9270 h1         1 TK5       0.071200
     59 H14         -5.2700     1.0390   -19.3910 hn         1 TK5       0.313500
     60 H15         -0.2290    -7.8650   -16.2480 h1         1 TK5       0.076200
     61 H16          1.4370    -7.6960   -16.7780 h1         1 TK5       0.076200
     62 H17          0.5050    -8.0910   -13.8990 h1         1 TK5       0.076700
     63 H18         -4.8590    -2.8800   -22.0970 hn         1 TK5       0.496000
     64 H19         -4.5320    -2.7410   -23.7620 hn         1 TK5       0.496000
     65 H20         -4.7250     1.9930   -21.3840 h4         1 TK5       0.031100
     66 H21         -5.6270    -1.4410   -25.4830 ha         1 TK5       0.128000
     67 H22         -4.8960    -1.9460   -27.7830 ha         1 TK5       0.120000
     68 H23         -2.7090    -1.1280   -28.6000 ha         1 TK5       0.118000
     69 H24         -1.2440     0.1810   -27.0950 ha         1 TK5       0.120000
     70 H25         -1.9480     0.6400   -24.7710 ha         1 TK5       0.128000
     71 H26         -6.0970     0.4570   -17.3590 h1         1 TK5       0.058700
     72 H27         -6.4610    -1.1640   -17.9170 h1         1 TK5       0.058700
     73 H28         -5.1020    -2.9490   -17.1280 ha         1 TK5       0.119500
     74 H29         -3.0770    -3.7750   -16.0550 ha         1 TK5       0.125500
     75 H30         -3.5100     1.0220   -17.1220 ha         1 TK5       0.119500
     76 H31         -1.4660     0.2030   -16.0470 ha         1 TK5       0.125500
     77 H32         -1.7690    -3.8370   -14.3850 hn         1 TK5       0.337500
     78 H33          1.8570    -3.8080   -10.9420 hc         1 TK5       0.044200
     79 H34          1.6610    -5.2840   -11.8490 hc         1 TK5       0.044200
     80 H35          3.0700    -4.3560   -13.6860 hc         1 TK5       0.029700
     81 H36          4.3140    -4.2810   -10.9200 hc         1 TK5       0.041950
     82 H37          4.0470    -5.7180   -11.8930 hc         1 TK5       0.041950
     83 H38          5.5740    -4.8730   -13.6380 hc         1 TK5       0.038450
     84 H39          6.3990    -4.9150   -12.0910 hc         1 TK5       0.038450
     85 H40          6.8420    -2.7770   -13.3160 hc         1 TK5       0.039200
     86 H41          6.0340    -2.4900   -11.7870 hc         1 TK5       0.039200
     87 H42          4.7070    -2.5660   -14.5360 hc         1 TK5       0.038450
     88 H43          4.9710    -1.1350   -13.5600 hc         1 TK5       0.038450
     89 H44          3.4340    -1.9850   -11.8200 hc         1 TK5       0.041950
     90 H45          2.6330    -1.9410   -13.3810 hc         1 TK5       0.041950
     91 C           -0.8350    -2.2900   -15.3420 c          1 TK5       0.617700
     92 C23         -5.6890    -0.3950   -17.9030 c3         1 TK5       0.153300
@<TRIPOS>BOND
     1     1    13 1   
     2     1    15 1   
     3     1    46 1   
     4     2     3 1   
     5     2     9 1   
     6     2    47 1   
     7     2    48 1   
     8     3    13 1   
     9     3    49 1   
    10     3    50 1   
    11     4     9 1   
    12     4    11 1   
    13     4    44 1   
    14     5     7 1   
    15     5    37 1   
    16     5    51 1   
    17     5    52 1   
    18     6    44 2   
    19     7    15 1   
    20     7    36 1   
    21     7    53 1   
    22     8    44 1   
    23     8    54 1   
    24     8    55 1   
    25     8    56 1   
    26     9    57 1   
    27     9    58 1   
    28    10    17 1   
    29    10    59 1   
    30    10    92 1   
    31    11    13 1   
    32    11    60 1   
    33    11    61 1   
    34    12    17 2   
    35    13    62 1   
    36    14    15 2   
    37    16    28 1   
    38    16    63 1   
    39    16    64 1   
    40    17    18 1   
    41    18    19 1   
    42    18    28 2   
    43    19    20 2   
    44    19    65 1   
    45    20    21 1   
    46    21    22 1   
    47    21    28 1   
    48    22    23 ar  
    49    22    27 ar  
    50    23    24 ar  
    51    23    66 1   
    52    24    25 ar  
    53    24    67 1   
    54    25    26 ar  
    55    25    68 1   
    56    26    27 ar  
    57    26    69 1   
    58    27    70 1   
    59    29    30 ar  
    60    29    32 ar  
    61    29    92 1   
    62    30    31 ar  
    63    30    73 1   
    64    31    34 ar  
    65    31    74 1   
    66    32    33 ar  
    67    32    75 1   
    68    33    34 ar  
    69    33    76 1   
    70    34    91 1   
    71    35    91 2   
    72    36    77 1   
    73    36    91 1   
    74    37    38 1   
    75    37    78 1   
    76    37    79 1   
    77    38    39 1   
    78    38    43 1   
    79    38    80 1   
    80    39    40 1   
    81    39    81 1   
    82    39    82 1   
    83    40    41 1   
    84    40    83 1   
    85    40    84 1   
    86    41    42 1   
    87    41    85 1   
    88    41    86 1   
    89    42    43 1   
    90    42    87 1   
    91    42    88 1   
    92    43    89 1   
    93    43    90 1   
    94    44    45 2   
    95    71    92 1   
    96    72    92 1   
@<TRIPOS>SUBSTRUCTURE
     1 TK5         1 TEMP              0 ****  ****    0 ROOT
