@<TRIPOS>MOLECULE
TK6
   33    34     1     0     0
SMALL
abcg2


@<TRIPOS>ATOM
      1 C01          4.9210     7.1050    19.7980 ca         1 TK6      -0.080300
      2 C02          5.8580     7.9600    20.4010 ca         1 TK6      -0.110300
      3 C04          3.4990     6.9770    20.2950 c3         1 TK6      -0.022100
      4 C05          7.1480     8.0160    19.8710 ca         1 TK6      -0.116000
      5 C06          5.5280     8.7530    21.6370 c3         1 TK6      -0.018100
      6 C07          6.6040     6.3920    18.1690 ca         1 TK6      -0.003300
      7 C10          5.8670     8.0000    22.9350 c3         1 TK6      -0.064400
      8 C11          6.9520     5.5910    16.9420 c3         1 TK6      -0.178100
      9 C13          5.2920     6.5850    23.0410 c3         1 TK6      -0.068400
     10 C03          5.3150     6.3410    18.6990 ca         1 TK6      -0.114000
     11 C08          3.2910     6.0090    21.4740 c3         1 TK6      -0.068400
     12 C09          7.5220     7.2490    18.7740 ca         1 TK6      -0.109000
     13 C12          3.7670     6.4740    22.8550 c3         1 TK6      -0.064400
     14 C14          6.4560     6.2880    15.6460 c          1 TK6       0.715000
     15 O15          7.0030     7.3790    15.3460 o          1 TK6      -0.729000
     16 O16          5.5390     5.7150    15.0040 o          1 TK6      -0.729000
     17 H18          3.1010     7.9580    20.5680 hc         1 TK6       0.039200
     18 H19          2.8890     6.6180    19.4620 hc         1 TK6       0.039200
     19 H20          7.8740     8.6770    20.3330 ha         1 TK6       0.087000
     20 H21          6.0860     9.6920    21.6270 hc         1 TK6       0.034700
     21 H22          4.4700     9.0200    21.6420 hc         1 TK6       0.034700
     22 H27          6.9560     7.9410    23.0310 hc         1 TK6       0.025200
     23 H26          5.5100     8.5980    23.7800 hc         1 TK6       0.025200
     24 H29          8.0360     5.4720    16.8720 hc         1 TK6       0.032200
     25 H28          6.5000     4.6010    16.9990 hc         1 TK6       0.032200
     26 H33          5.7900     5.9340    22.3170 hc         1 TK6       0.037200
     27 H32          5.5620     6.1970    24.0260 hc         1 TK6       0.037200
     28 H17          4.5840     5.6890    18.2310 ha         1 TK6       0.116000
     29 H24          2.2190     5.8020    21.5380 hc         1 TK6       0.031700
     30 H23          3.7750     5.0560    21.2340 hc         1 TK6       0.031700
     31 H25          8.5310     7.3180    18.3840 ha         1 TK6       0.111000
     32 H30          3.2930     7.4310    23.0990 hc         1 TK6       0.023700
     33 H31          3.3790     5.7560    23.5830 hc         1 TK6       0.023700
@<TRIPOS>BOND
     1     1     2 ar  
     2     1     3 1   
     3     1    10 ar  
     4     2     4 ar  
     5     2     5 1   
     6     3    11 1   
     7     3    17 1   
     8     3    18 1   
     9     4    12 ar  
    10     4    19 1   
    11     5     7 1   
    12     5    20 1   
    13     5    21 1   
    14     6     8 1   
    15     6    10 ar  
    16     6    12 ar  
    17     7     9 1   
    18     7    22 1   
    19     7    23 1   
    20     8    14 1   
    21     8    24 1   
    22     8    25 1   
    23     9    13 1   
    24     9    26 1   
    25     9    27 1   
    26    10    28 1   
    27    11    13 1   
    28    11    29 1   
    29    11    30 1   
    30    12    31 1   
    31    13    32 1   
    32    13    33 1   
    33    14    15 1   
    34    14    16 1   
@<TRIPOS>SUBSTRUCTURE
     1 TK6         1 TEMP              0 ****  ****    0 ROOT
