@<TRIPOS>MOLECULE
TK6
   33    34     1     0     0
SMALL
No Charge or Current Charge


@<TRIPOS>ATOM
      1 C01          4.8800     7.0800    19.7890 ca         1 TK6      -0.080300
      2 C02          5.8350     7.9480    20.3810 ca         1 TK6      -0.110300
      3 C04          3.4490     6.9400    20.3200 c3         1 TK6      -0.022100
      4 C05          7.1310     8.0240    19.8350 ca         1 TK6      -0.116000
      5 C06          5.5210     8.7820    21.6220 c3         1 TK6      -0.018100
      6 C07          6.5480     6.3950    18.1220 ca         1 TK6      -0.003300
      7 C10          5.8590     8.0450    22.9350 c3         1 TK6      -0.064400
      8 C11          6.9320     5.5520    16.9090 c3         1 TK6      -0.178100
      9 C13          5.3130     6.6000    23.0590 c3         1 TK6      -0.068400
     10 C03          5.2530     6.3130    18.6650 ca         1 TK6      -0.114000
     11 C08          3.2990     5.9520    21.5010 c3         1 TK6      -0.068400
     12 C09          7.4850     7.2580    18.7140 ca         1 TK6      -0.109000
     13 C12          3.7800     6.4470    22.8910 c3         1 TK6      -0.064400
     14 C14          6.6230     6.3300    15.6200 c          1 TK6       0.715000
     15 O15          7.4780     7.0890    15.1860 o          1 TK6      -0.729000
     16 O16          5.5000     6.2400    15.1470 o          1 TK6      -0.729000
     17 H18          3.0150     7.9090    20.5880 hc         1 TK6       0.039200
     18 H19          2.8070     6.5760    19.5080 hc         1 TK6       0.039200
     19 H20          7.8730     8.6800    20.2850 ha         1 TK6       0.087000
     20 H21          6.0960     9.7150    21.5960 hc         1 TK6       0.034700
     21 H22          4.4750     9.1040    21.6450 hc         1 TK6       0.034700
     22 H27          6.9500     8.0080    23.0420 hc         1 TK6       0.025200
     23 H26          5.4880     8.6420    23.7780 hc         1 TK6       0.025200
     24 H29          8.0090     5.3560    16.9810 hc         1 TK6       0.032200
     25 H28          6.3300     4.6360    16.9490 hc         1 TK6       0.032200
     26 H33          5.8330     5.9440    22.3510 hc         1 TK6       0.037200
     27 H32          5.5860     6.2330    24.0560 hc         1 TK6       0.037200
     28 H17          4.5270     5.6450    18.2070 ha         1 TK6       0.116000
     29 H24          2.2340     5.7060    21.5930 hc         1 TK6       0.031700
     30 H23          3.8050     5.0110    21.2530 hc         1 TK6       0.031700
     31 H25          8.4910     7.3340    18.3080 ha         1 TK6       0.111000
     32 H30          3.2740     7.3860    23.1490 hc         1 TK6       0.023700
     33 H31          3.4380     5.7120    23.6310 hc         1 TK6       0.023700
@<TRIPOS>BOND
     1     1     2 ar  
     2     1     3 1   
     3     1    10 ar  
     4     2     4 ar  
     5     2     5 1   
     6     3    11 1   
     7     3    17 1   
     8     3    18 1   
     9     4    12 ar  
    10     4    19 1   
    11     5     7 1   
    12     5    20 1   
    13     5    21 1   
    14     6     8 1   
    15     6    10 ar  
    16     6    12 ar  
    17     7     9 1   
    18     7    22 1   
    19     7    23 1   
    20     8    14 1   
    21     8    24 1   
    22     8    25 1   
    23     9    13 1   
    24     9    26 1   
    25     9    27 1   
    26    10    28 1   
    27    11    13 1   
    28    11    29 1   
    29    11    30 1   
    30    12    31 1   
    31    13    32 1   
    32    13    33 1   
    33    14    15 1   
    34    14    16 1   
@<TRIPOS>SUBSTRUCTURE
     1 TK6         1 TEMP              0 ****  ****    0 ROOT
