@<TRIPOS>MOLECULE
TK7
  102   105     1     0     0
SMALL
No Charge or Current Charge


@<TRIPOS>ATOM
      1 C13        -38.5060    -0.5020    23.0720 c3         1 TK7       0.151300
      2 C15        -38.1330    -1.9850    23.3880 c3         1 TK7       0.138700
      3 C17        -39.8380    -3.5640    24.3470 c          1 TK7       0.636100
      4 C20        -41.4660    -5.2230    24.8460 c5         1 TK7       0.169300
      5 C21        -42.7360    -5.8930    24.2180 c5         1 TK7       0.150600
      6 C24        -41.4690    -7.6250    25.1040 c5         1 TK7       0.370300
      7 C26        -39.4720    -8.2980    24.0290 c5         1 TK7       0.156600
      8 C28        -36.9850    -2.5710    22.5170 c3         1 TK7      -0.031100
      9 C01        -33.9480     4.5380    23.6050 ca         1 TK7       0.364000
     10 C02        -34.4130     4.4640    24.9230 ca         1 TK7      -0.211000
     11 C03        -34.8570     3.2400    25.4480 ca         1 TK7       0.033500
     12 C04        -34.8380     2.0850    24.6410 ca         1 TK7      -0.382500
     13 C05        -34.3620     2.1610    23.3170 ca         1 TK7       0.033500
     14 C06        -33.9200     3.3910    22.8050 ca         1 TK7      -0.211000
     15 C11        -37.8150     1.6150    25.7010 c3         1 TK7       0.200800
     16 C12        -37.4010     0.5160    23.4940 c3         1 TK7       0.177800
     17 C23        -40.4960    -6.4350    25.0780 c5         1 TK7      -0.141700
     18 C25        -39.6750    -6.7830    23.7960 c5         1 TK7      -0.099400
     19 C29        -36.6430    -4.0260    22.8410 ca         1 TK7      -0.116300
     20 C30        -36.7220    -5.0140    21.8410 ca         1 TK7      -0.068500
     21 C31        -36.4070    -6.3510    22.1380 ca         1 TK7      -0.158500
     22 C32        -36.0100    -6.7190    23.4330 ca         1 TK7       0.122100
     23 C33        -35.9290    -5.7320    24.4390 ca         1 TK7      -0.158500
     24 C34        -36.2380    -4.3930    24.1400 ca         1 TK7      -0.068500
     25 C37        -39.3570     1.4470    25.8370 c3         1 TK7      -0.056700
     26 C38        -40.0120     2.6470    26.5820 c3         1 TK7      -0.075400
     27 C39        -39.7590     0.0860    26.4840 c3         1 TK7      -0.075400
     28 C40        -39.2880    -0.1310    27.9400 c3         1 TK7      -0.093100
     29 C42        -35.1910    -8.5510    24.9200 c3         1 TK7      -0.190400
     30 C46        -32.3390    -6.5980    27.1680 c3         1 TK7       0.226100
     31 C47        -31.6220    -6.8940    23.6760 c3         1 TK7       0.226100
     32 C48        -31.3490    -7.6780    27.6480 c3         1 TK7      -0.121100
     33 C49        -31.0200    -8.0730    22.8870 c3         1 TK7      -0.121100
     34 N10        -37.0850     0.5500    24.9550 n3         1 TK7      -0.732500
     35 N16        -39.3230    -2.8420    23.3100 ns         1 TK7      -0.494900
     36 O14        -38.8170    -0.3460    21.6690 oh         1 TK7      -0.666000
     37 O18        -39.4100    -3.5510    25.4910 o          1 TK7      -0.543000
     38 O19        -40.8980    -4.2910    23.8820 os         1 TK7      -0.459100
     39 O22        -42.4200    -7.2990    24.0760 os         1 TK7      -0.458000
     40 O27        -40.6940    -8.7620    24.6640 os         1 TK7      -0.448000
     41 O35        -35.7420    -8.0550    23.6680 os         1 TK7      -0.333100
     42 O44        -33.4690    -7.1850    26.4980 os         1 TK7      -0.617900
     43 O45        -32.9820    -7.1950    24.0240 os         1 TK7      -0.617900
     44 O50        -32.5630    -9.4280    25.4010 o          1 TK7      -0.579000
     45 P43        -33.3870    -8.1970    25.2320 p5         1 TK7       1.349800
     46 S07        -35.4110     0.5160    25.3060 sy         1 TK7       1.194600
     47 H131       -39.4070    -0.2780    23.6520 h1         1 TK7       0.055700
     48 H151       -37.7820    -1.9960    24.4290 h1         1 TK7       0.101700
     49 H201       -41.7260    -4.7000    25.7780 h1         1 TK7       0.073700
     50 H211       -43.6020    -5.7890    24.8850 h1         1 TK7       0.062200
     51 H212       -42.9980    -5.4740    23.2380 h1         1 TK7       0.062200
     52 H241       -41.9550    -7.7850    26.0760 h2         1 TK7       0.066700
     53 H262       -39.2920    -8.8530    23.0990 h1         1 TK7       0.052700
     54 H261       -38.6320    -8.4830    24.7140 h1         1 TK7       0.052700
     55 H282       -37.2620    -2.4820    21.4600 hc         1 TK7       0.063200
     56 H281       -36.0850    -1.9590    22.6380 hc         1 TK7       0.063200
     57 H021       -34.4310     5.3530    25.5470 ha         1 TK7       0.118500
     58 H031       -35.2150     3.1970    26.4760 ha         1 TK7       0.130500
     59 H051       -34.3300     1.2750    22.6830 ha         1 TK7       0.130500
     60 H061       -33.5550     3.4460    21.7840 ha         1 TK7       0.118500
     61 H111       -37.6070     2.5820    25.2250 h1         1 TK7       0.052200
     62 H112       -37.4290     1.6960    26.7250 h1         1 TK7       0.052200
     63 H121       -36.5110     0.2730    22.9010 h1         1 TK7       0.053200
     64 H122       -37.7040     1.5180    23.1600 h1         1 TK7       0.053200
     65 H231       -39.8910    -6.3560    25.9880 hc         1 TK7       0.080700
     66 H252       -38.7320    -6.2330    23.7410 hc         1 TK7       0.073200
     67 H251       -40.2160    -6.6040    22.8580 hc         1 TK7       0.073200
     68 H301       -37.0310    -4.7500    20.8310 ha         1 TK7       0.126000
     69 H311       -36.4760    -7.1080    21.3620 ha         1 TK7       0.123500
     70 H331       -35.6360    -5.9810    25.4530 ha         1 TK7       0.123500
     71 H341       -36.1650    -3.6410    24.9230 ha         1 TK7       0.126000
     72 H363       -40.4720     4.7690    26.3830 hc         1 TK7       0.034533
     73 H361       -38.8510     4.3450    25.8110 hc         1 TK7       0.034533
     74 H362       -40.2790     3.9320    24.8290 hc         1 TK7       0.034533
     75 H371       -39.7810     1.4620    24.8270 hc         1 TK7       0.037700
     76 H381       -39.5750     2.7490    27.5830 hc         1 TK7       0.046950
     77 H382       -41.0790     2.4340    26.7270 hc         1 TK7       0.046950
     78 H391       -40.8510    -0.0140    26.4520 hc         1 TK7       0.046950
     79 H392       -39.3660    -0.7360    25.8780 hc         1 TK7       0.046950
     80 H403       -39.6090    -1.1180    28.2940 hc         1 TK7       0.034533
     81 H401       -38.1950    -0.0900    28.0120 hc         1 TK7       0.034533
     82 H402       -39.7130     0.6210    28.6140 hc         1 TK7       0.034533
     83 H422       -35.7550    -8.1840    25.7840 h1         1 TK7       0.081700
     84 H421       -35.2380    -9.6450    24.9380 h1         1 TK7       0.081700
     85 H462       -32.6900    -6.0370    28.0440 h1         1 TK7       0.049700
     86 H461       -31.8210    -5.8830    26.5150 h1         1 TK7       0.049700
     87 H472       -31.5920    -5.9940    23.0480 h1         1 TK7       0.049700
     88 H471       -31.0090    -6.6990    24.5650 h1         1 TK7       0.049700
     89 H483       -30.6300    -7.2360    28.3470 hc         1 TK7       0.051033
     90 H481       -31.8750    -8.4870    28.1700 hc         1 TK7       0.051033
     91 H482       -30.7770    -8.0980    26.8130 hc         1 TK7       0.051033
     92 H493       -30.0540    -7.7790    22.4600 hc         1 TK7       0.051033
     93 H491       -30.8460    -8.9440    23.5270 hc         1 TK7       0.051033
     94 H492       -31.6810    -8.3640    22.0620 hc         1 TK7       0.051033
     95 H161       -39.7900    -2.9460    22.4200 hn         1 TK7       0.330500
     96 H412       -33.3560     5.8180    22.1000 hn         1 TK7       0.470500
     97 H411       -33.7070     6.5890    23.6150 hn         1 TK7       0.470500
     98 H141       -39.3300     0.4860    21.5720 ho         1 TK7       0.441000
     99 N41        -33.5180     5.7320    23.1010 nv         1 TK7      -1.089000
    100 C36        -39.8920     4.0040    25.8530 c3         1 TK7      -0.093100
    101 O08        -35.2920     0.5270    26.7680 o          1 TK7      -0.547500
    102 O09        -34.8480    -0.5900    24.5260 o          1 TK7      -0.547500
@<TRIPOS>BOND
     1     1     2 1   
     2     1    16 1   
     3     1    36 1   
     4     1    47 1   
     5     2     8 1   
     6     2    35 1   
     7     2    48 1   
     8     3    35 1   
     9     3    37 2   
    10     3    38 1   
    11     4     5 1   
    12     4    17 1   
    13     4    38 1   
    14     4    49 1   
    15     5    39 1   
    16     5    50 1   
    17     5    51 1   
    18     6    17 1   
    19     6    39 1   
    20     6    40 1   
    21     6    52 1   
    22     7    18 1   
    23     7    40 1   
    24     7    53 1   
    25     7    54 1   
    26     8    19 1   
    27     8    55 1   
    28     8    56 1   
    29     9    10 ar  
    30     9    14 ar  
    31     9    99 1   
    32    10    11 ar  
    33    10    57 1   
    34    11    12 ar  
    35    11    58 1   
    36    12    13 ar  
    37    12    46 1   
    38    13    14 ar  
    39    13    59 1   
    40    14    60 1   
    41    15    25 1   
    42    15    34 1   
    43    15    61 1   
    44    15    62 1   
    45    16    34 1   
    46    16    63 1   
    47    16    64 1   
    48    17    18 1   
    49    17    65 1   
    50    18    66 1   
    51    18    67 1   
    52    19    20 ar  
    53    19    24 ar  
    54    20    21 ar  
    55    20    68 1   
    56    21    22 ar  
    57    21    69 1   
    58    22    23 ar  
    59    22    41 1   
    60    23    24 ar  
    61    23    70 1   
    62    24    71 1   
    63    25    26 1   
    64    25    27 1   
    65    25    75 1   
    66    26    76 1   
    67    26    77 1   
    68    26   100 1   
    69    27    28 1   
    70    27    78 1   
    71    27    79 1   
    72    28    80 1   
    73    28    81 1   
    74    28    82 1   
    75    29    41 1   
    76    29    45 1   
    77    29    83 1   
    78    29    84 1   
    79    30    32 1   
    80    30    42 1   
    81    30    85 1   
    82    30    86 1   
    83    31    33 1   
    84    31    43 1   
    85    31    87 1   
    86    31    88 1   
    87    32    89 1   
    88    32    90 1   
    89    32    91 1   
    90    33    92 1   
    91    33    93 1   
    92    33    94 1   
    93    34    46 1   
    94    35    95 1   
    95    36    98 1   
    96    42    45 1   
    97    43    45 1   
    98    44    45 2   
    99    46   101 2   
   100    46   102 2   
   101    72   100 1   
   102    73   100 1   
   103    74   100 1   
   104    96    99 1   
   105    97    99 1   
@<TRIPOS>SUBSTRUCTURE
     1 TK7         1 TEMP              0 ****  ****    0 ROOT
