@<TRIPOS>MOLECULE
TK7
  102   105     1     0     0
SMALL
abcg2


@<TRIPOS>ATOM
      1 C13        -38.7220    -0.3830    23.1250 c3         1 TK7       0.151300
      2 C15        -38.1760    -1.7910    23.3690 c3         1 TK7       0.138700
      3 C17        -39.6570    -3.5430    24.2700 c          1 TK7       0.636100
      4 C20        -41.0760    -5.3740    24.8220 c5         1 TK7       0.169300
      5 C21        -42.2210    -6.1540    24.1690 c5         1 TK7       0.150600
      6 C24        -40.7810    -7.7870    24.8200 c5         1 TK7       0.370300
      7 C26        -38.5100    -8.0610    24.3870 c5         1 TK7       0.156600
      8 C28        -37.0080    -2.1720    22.4440 c3         1 TK7      -0.031100
      9 C01        -33.7780     4.3340    24.2900 ca         1 TK7       0.364000
     10 C02        -34.4950     4.2950    25.5010 ca         1 TK7      -0.211000
     11 C03        -35.1540     3.1470    25.8950 ca         1 TK7       0.033500
     12 C04        -35.1110     2.0030    25.0930 ca         1 TK7      -0.382500
     13 C05        -34.4040     2.0270    23.8890 ca         1 TK7       0.033500
     14 C06        -33.7450     3.1750    23.4930 ca         1 TK7      -0.211000
     15 C11        -38.3750     1.7860    25.7580 c3         1 TK7       0.200800
     16 C12        -37.7770     0.7370    23.5730 c3         1 TK7       0.177800
     17 C23        -40.0870    -6.4820    25.2460 c5         1 TK7      -0.141700
     18 C25        -38.7590    -6.5640    24.4820 c5         1 TK7      -0.099400
     19 C29        -36.4550    -3.5370    22.7650 ca         1 TK7      -0.116300
     20 C30        -36.6160    -4.6090    21.8860 ca         1 TK7      -0.068500
     21 C31        -36.1520    -5.8780    22.2010 ca         1 TK7      -0.158500
     22 C32        -35.5170    -6.1030    23.4190 ca         1 TK7       0.122100
     23 C33        -35.3260    -5.0450    24.3040 ca         1 TK7      -0.158500
     24 C34        -35.7970    -3.7800    23.9690 ca         1 TK7      -0.068500
     25 C37        -39.8580     1.4210    25.8650 c3         1 TK7      -0.056700
     26 C38        -40.6200     2.5530    26.5740 c3         1 TK7      -0.075400
     27 C39        -40.0820     0.0590    26.5390 c3         1 TK7      -0.075400
     28 C40        -39.6130    -0.0430    27.9900 c3         1 TK7      -0.093100
     29 C42        -34.7480    -7.7940    24.9650 c3         1 TK7      -0.190400
     30 C46        -31.1080    -5.9400    24.9600 c3         1 TK7       0.226100
     31 C47        -32.1220   -10.0470    23.9470 c3         1 TK7       0.226100
     32 C48        -30.8170    -5.1340    26.2040 c3         1 TK7      -0.121100
     33 C49        -33.1900   -10.7060    23.1020 c3         1 TK7      -0.121100
     34 N10        -37.5740     0.7790    25.0320 n3         1 TK7      -0.732500
     35 N16        -39.2470    -2.7690    23.2490 ns         1 TK7      -0.494900
     36 O14        -38.9920    -0.2430    21.7290 oh         1 TK7      -0.666000
     37 O18        -39.2990    -3.4490    25.4330 o          1 TK7      -0.543000
     38 O19        -40.5520    -4.4660    23.8340 os         1 TK7      -0.459100
     39 O22        -41.6660    -7.4050    23.7610 os         1 TK7      -0.458000
     40 O27        -39.8200    -8.6780    24.3420 os         1 TK7      -0.448000
     41 O35        -35.1350    -7.4000    23.6570 os         1 TK7      -0.333100
     42 O44        -32.5080    -6.3510    24.9490 os         1 TK7      -0.617900
     43 O45        -32.3160    -8.6050    23.9790 os         1 TK7      -0.617900
     44 O50        -32.5980    -8.4220    26.5390 o          1 TK7      -0.579000
     45 P43        -32.9460    -7.8430    25.2230 p5         1 TK7       1.349800
     46 S07        -36.0200     0.5740    25.5560 sy         1 TK7       1.194600
     47 H131       -39.6560    -0.3060    23.6850 h1         1 TK7       0.055700
     48 H151       -37.8400    -1.8290    24.4020 h1         1 TK7       0.101700
     49 H201       -41.4160    -4.7880    25.6730 h1         1 TK7       0.073700
     50 H211       -43.0200    -6.3140    24.9010 h1         1 TK7       0.062200
     51 H212       -42.6290    -5.6510    23.2950 h1         1 TK7       0.062200
     52 H241       -41.3660    -8.2710    25.6100 h2         1 TK7       0.066700
     53 H262       -37.9670    -8.3520    23.4890 h1         1 TK7       0.052700
     54 H261       -37.9770    -8.4440    25.2620 h1         1 TK7       0.052700
     55 H282       -37.3520    -2.1490    21.4100 hc         1 TK7       0.063200
     56 H281       -36.2290    -1.4180    22.5480 hc         1 TK7       0.063200
     57 H021       -34.5230     5.1770    26.1290 ha         1 TK7       0.118500
     58 H031       -35.6950     3.1350    26.8310 ha         1 TK7       0.130500
     59 H051       -34.3630     1.1420    23.2690 ha         1 TK7       0.130500
     60 H061       -33.1920     3.1870    22.5620 ha         1 TK7       0.118500
     61 H111       -38.2620     2.7520    25.2590 h1         1 TK7       0.052200
     62 H112       -37.9620     1.8790    26.7590 h1         1 TK7       0.052200
     63 H121       -36.8230     0.6260    23.0610 h1         1 TK7       0.053200
     64 H122       -38.2010     1.6930    23.2560 h1         1 TK7       0.053200
     65 H231       -39.9160    -6.4570    26.3200 hc         1 TK7       0.080700
     66 H252       -37.9520    -6.0440    24.9900 hc         1 TK7       0.073200
     67 H251       -38.8590    -6.1400    23.4860 hc         1 TK7       0.073200
     68 H301       -37.1270    -4.4520    20.9430 ha         1 TK7       0.126000
     69 H311       -36.2980    -6.7090    21.5230 ha         1 TK7       0.123500
     70 H331       -34.8110    -5.1850    25.2410 ha         1 TK7       0.123500
     71 H341       -35.6470    -2.9640    24.6640 ha         1 TK7       0.126000
     72 H363       -41.3750     4.5660    26.2750 hc         1 TK7       0.034533
     73 H361       -39.8010     4.2950    25.5340 hc         1 TK7       0.034533
     74 H362       -41.2510     3.6180    24.7900 hc         1 TK7       0.034533
     75 H371       -40.2670     1.3540    24.8520 hc         1 TK7       0.037700
     76 H381       -40.1290     2.7870    27.5230 hc         1 TK7       0.046950
     77 H382       -41.6160     2.1800    26.8280 hc         1 TK7       0.046950
     78 H391       -41.1520    -0.1650    26.4880 hc         1 TK7       0.046950
     79 H392       -39.5810    -0.7150    25.9550 hc         1 TK7       0.046950
     80 H403       -39.8190    -1.0410    28.3830 hc         1 TK7       0.034533
     81 H401       -38.5390     0.1290    28.0780 hc         1 TK7       0.034533
     82 H402       -40.1230     0.6770    28.6330 hc         1 TK7       0.034533
     83 H422       -35.2130    -7.1830    25.7400 h1         1 TK7       0.081700
     84 H421       -35.0970    -8.8190    25.1000 h1         1 TK7       0.081700
     85 H462       -30.9730    -5.3490    24.0550 h1         1 TK7       0.049700
     86 H461       -30.4720    -6.8230    24.8940 h1         1 TK7       0.049700
     87 H472       -31.1310   -10.1940    23.5210 h1         1 TK7       0.049700
     88 H471       -32.1210   -10.4260    24.9690 h1         1 TK7       0.049700
     89 H483       -29.7840    -4.7800    26.1720 hc         1 TK7       0.051033
     90 H481       -31.4770    -4.2680    26.2660 hc         1 TK7       0.051033
     91 H482       -30.9460    -5.7420    27.1000 hc         1 TK7       0.051033
     92 H493       -32.9810   -11.7750    23.0260 hc         1 TK7       0.051033
     93 H491       -34.1780   -10.5810    23.5450 hc         1 TK7       0.051033
     94 H492       -33.2000   -10.2840    22.0960 hc         1 TK7       0.051033
     95 H161       -39.6010    -2.9840    22.3300 hn         1 TK7       0.330500
     96 H412       -32.8100     5.5410    22.9560 hn         1 TK7       0.470500
     97 H411       -33.3410     6.3290    24.3590 hn         1 TK7       0.470500
     98 H141       -39.5690     0.5210    21.6050 ho         1 TK7       0.441000
     99 N41        -33.0850     5.4580    23.9220 nv         1 TK7      -1.089000
    100 C36        -40.7660     3.8300    25.7460 c3         1 TK7      -0.093100
    101 O08        -36.0710     0.5080    26.9990 o          1 TK7      -0.547500
    102 O09        -35.4840    -0.5540    24.8270 o          1 TK7      -0.547500
@<TRIPOS>BOND
     1     1     2 1   
     2     1    16 1   
     3     1    36 1   
     4     1    47 1   
     5     2     8 1   
     6     2    35 1   
     7     2    48 1   
     8     3    35 1   
     9     3    37 2   
    10     3    38 1   
    11     4     5 1   
    12     4    17 1   
    13     4    38 1   
    14     4    49 1   
    15     5    39 1   
    16     5    50 1   
    17     5    51 1   
    18     6    17 1   
    19     6    39 1   
    20     6    40 1   
    21     6    52 1   
    22     7    18 1   
    23     7    40 1   
    24     7    53 1   
    25     7    54 1   
    26     8    19 1   
    27     8    55 1   
    28     8    56 1   
    29     9    10 ar  
    30     9    14 ar  
    31     9    99 1   
    32    10    11 ar  
    33    10    57 1   
    34    11    12 ar  
    35    11    58 1   
    36    12    13 ar  
    37    12    46 1   
    38    13    14 ar  
    39    13    59 1   
    40    14    60 1   
    41    15    25 1   
    42    15    34 1   
    43    15    61 1   
    44    15    62 1   
    45    16    34 1   
    46    16    63 1   
    47    16    64 1   
    48    17    18 1   
    49    17    65 1   
    50    18    66 1   
    51    18    67 1   
    52    19    20 ar  
    53    19    24 ar  
    54    20    21 ar  
    55    20    68 1   
    56    21    22 ar  
    57    21    69 1   
    58    22    23 ar  
    59    22    41 1   
    60    23    24 ar  
    61    23    70 1   
    62    24    71 1   
    63    25    26 1   
    64    25    27 1   
    65    25    75 1   
    66    26    76 1   
    67    26    77 1   
    68    26   100 1   
    69    27    28 1   
    70    27    78 1   
    71    27    79 1   
    72    28    80 1   
    73    28    81 1   
    74    28    82 1   
    75    29    41 1   
    76    29    45 1   
    77    29    83 1   
    78    29    84 1   
    79    30    32 1   
    80    30    42 1   
    81    30    85 1   
    82    30    86 1   
    83    31    33 1   
    84    31    43 1   
    85    31    87 1   
    86    31    88 1   
    87    32    89 1   
    88    32    90 1   
    89    32    91 1   
    90    33    92 1   
    91    33    93 1   
    92    33    94 1   
    93    34    46 1   
    94    35    95 1   
    95    36    98 1   
    96    42    45 1   
    97    43    45 1   
    98    44    45 2   
    99    46   101 2   
   100    46   102 2   
   101    72   100 1   
   102    73   100 1   
   103    74   100 1   
   104    96    99 1   
   105    97    99 1   
@<TRIPOS>SUBSTRUCTURE
     1 TK7         1 TEMP              0 ****  ****    0 ROOT
