@<TRIPOS>MOLECULE
TK8
   20    19     1     0     0
SMALL
bcc


@<TRIPOS>ATOM
      1 C02        -19.4030     5.8390    -2.9360 c3         1 TK8       0.086400
      2 C03        -20.7860     5.2370    -3.1370 c3         1 TK8       0.126100
      3 C04        -20.7140     3.9400    -3.9430 c3         1 TK8       0.153100
      4 C05        -22.0660     3.2400    -4.1680 c3         1 TK8       0.005100
      5 C06        -22.7330     2.7690    -2.8470 c          1 TK8       0.896600
      6 O01        -19.5480     6.9810    -2.1160 oh         1 TK8      -0.605800
      7 O07        -23.1670     3.6170    -2.0550 o          1 TK8      -0.820800
      8 O08        -22.7750     1.5220    -2.7210 o          1 TK8      -0.820800
      9 O09        -21.8750     2.1110    -4.9830 oh         1 TK8      -0.640800
     10 O10        -20.1530     4.1740    -5.2240 oh         1 TK8      -0.585800
     11 O11        -21.6410     6.1450    -3.7970 oh         1 TK8      -0.573800
     12 H1         -18.7480     5.0880    -2.4740 h1         1 TK8       0.017700
     13 H2         -18.9650     6.1060    -3.9050 h1         1 TK8       0.017700
     14 H031       -21.1780     4.9820    -2.1440 h1         1 TK8       0.084700
     15 H041       -20.0790     3.2470    -3.3710 h1         1 TK8       0.022700
     16 H051       -22.7460     3.9460    -4.6640 h1         1 TK8       0.061700
     17 H3         -18.7270     7.4800    -2.1390 ho         1 TK8       0.388000
     18 H5         -22.1200     1.3910    -4.3670 ho         1 TK8       0.431000
     19 H6         -19.1990     4.0870    -5.1630 ho         1 TK8       0.365000
     20 H7         -21.5990     6.9800    -3.3200 ho         1 TK8       0.393000
@<TRIPOS>BOND
     1     1     2 1   
     2     1     6 1   
     3     1    12 1   
     4     1    13 1   
     5     2     3 1   
     6     2    11 1   
     7     2    14 1   
     8     3     4 1   
     9     3    10 1   
    10     3    15 1   
    11     4     5 1   
    12     4     9 1   
    13     4    16 1   
    14     5     7 1   
    15     5     8 1   
    16     6    17 1   
    17     9    18 1   
    18    10    19 1   
    19    11    20 1   
@<TRIPOS>SUBSTRUCTURE
     1 TK8         1 TEMP              0 ****  ****    0 ROOT
