@<TRIPOS>MOLECULE
TK8
   20    19     1     0     0
SMALL
No Charge or Current Charge


@<TRIPOS>ATOM
      1 C02        -19.4220     5.9540    -2.7660 c3         1 TK8       0.109600
      2 C03        -20.7870     5.2980    -3.1090 c3         1 TK8       0.149300
      3 C04        -20.6430     3.9430    -3.8880 c3         1 TK8       0.176300
      4 C05        -21.9890     3.2250    -4.1870 c3         1 TK8       0.028300
      5 C06        -22.6260     2.6820    -2.8620 c          1 TK8       0.686000
      6 O01        -19.6390     7.2490    -2.1740 oh         1 TK8      -0.728000
      7 O07        -23.3980     3.3950    -2.2390 o          1 TK8      -0.715500
      8 O08        -22.4470     1.4980    -2.6050 o          1 TK8      -0.715500
      9 O09        -21.7540     2.1510    -5.1590 oh         1 TK8      -0.763000
     10 O10        -19.9880     4.1150    -5.1550 oh         1 TK8      -0.708000
     11 O11        -21.5620     6.2730    -3.8340 oh         1 TK8      -0.696000
     12 H1         -18.8760     5.3010    -2.0710 h1         1 TK8       0.017700
     13 H2         -18.8160     6.0530    -3.6770 h1         1 TK8       0.017700
     14 H031       -21.2780     5.0770    -2.1500 h1         1 TK8       0.084700
     15 H041       -20.0410     3.2680    -3.2650 h1         1 TK8       0.022700
     16 H051       -22.6930     3.9580    -4.6050 h1         1 TK8       0.061700
     17 H3         -18.7560     7.5920    -1.8950 ho         1 TK8       0.487000
     18 H5         -21.8830     1.3130    -4.6420 ho         1 TK8       0.530000
     19 H6         -20.4230     3.4090    -5.6950 ho         1 TK8       0.464000
     20 H7         -21.2030     7.1280    -3.4940 ho         1 TK8       0.492000
@<TRIPOS>BOND
     1     1     2 1   
     2     1     6 1   
     3     1    12 1   
     4     1    13 1   
     5     2     3 1   
     6     2    11 1   
     7     2    14 1   
     8     3     4 1   
     9     3    10 1   
    10     3    15 1   
    11     4     5 1   
    12     4     9 1   
    13     4    16 1   
    14     5     7 1   
    15     5     8 1   
    16     6    17 1   
    17     9    18 1   
    18    10    19 1   
    19    11    20 1   
@<TRIPOS>SUBSTRUCTURE
     1 TK8         1 TEMP              0 ****  ****    0 ROOT
