@<TRIPOS>MOLECULE
TK9
   50    51     1     0     0
SMALL
No Charge or Current Charge


@<TRIPOS>ATOM
      1 F2           0.8720    -0.9590   -17.5440 f          1 TK9      -0.116667
      2 C15         -0.3540    -0.6340   -18.0190 c3         1 TK9       0.352300
      3 F           -0.5280     0.6800   -17.7500 f          1 TK9      -0.116667
      4 F1          -0.2780    -0.7600   -19.3630 f          1 TK9      -0.116667
      5 C14         -1.4870    -1.4950   -17.4150 ca         1 TK9      -0.144300
      6 C16         -1.1950    -2.4030   -16.3650 ca         1 TK9      -0.167000
      7 C17         -2.2050    -3.2040   -15.7910 ca         1 TK9       0.138100
      8 O3          -1.9580    -4.1010   -14.7700 os         1 TK9      -0.340100
      9 C18         -0.6460    -4.2900   -14.2100 c3         1 TK9       0.147900
     10 C19         -3.5180    -3.1010   -16.2620 ca         1 TK9      -0.120000
     11 C20         -3.8290    -2.2060   -17.2950 ca         1 TK9      -0.063000
     12 C13         -2.8320    -1.3970   -17.8760 ca         1 TK9      -0.091300
     13 C12         -3.2630    -0.4500   -18.9980 c3         1 TK9       0.144300
     14 N           -3.1570    -1.0930   -20.3090 ns         1 TK9      -0.505900
     15 C           -4.1900    -1.7210   -20.9670 c          1 TK9       0.624700
     16 O           -5.3190    -1.7530   -20.4960 o          1 TK9      -0.629100
     17 C1          -3.8500    -2.3650   -22.2970 ca         1 TK9      -0.185600
     18 C11         -4.8650    -3.0200   -23.0320 ca         1 TK9      -0.074500
     19 C10         -4.5830    -3.6280   -24.2660 ca         1 TK9      -0.127500
     20 C4          -3.2810    -3.5980   -24.7960 ca         1 TK9      -0.013300
     21 C3          -2.2650    -2.9470   -24.0750 ca         1 TK9      -0.127500
     22 C2          -2.5410    -2.3370   -22.8390 ca         1 TK9      -0.074500
     23 C5          -2.9720    -4.2600   -26.1350 c3         1 TK9      -0.030100
     24 C6          -2.1400    -5.5660   -26.0040 c3         1 TK9      -0.187700
     25 C8          -2.8890    -6.6700   -25.2050 c3         1 TK9      -0.050400
     26 C9          -2.0680    -7.9580   -24.9930 c3         1 TK9      -0.077100
     27 C7          -1.6900    -6.0610   -27.4010 c          1 TK9       0.718000
     28 O2          -2.5450    -6.3870   -28.2120 o          1 TK9      -0.732000
     29 O1          -0.4930    -6.0860   -27.6440 o          1 TK9      -0.732000
     30 H1          -0.1770    -2.4830   -15.9970 ha         1 TK9       0.130000
     31 H2          -0.6770    -5.0460   -13.4150 h1         1 TK9       0.042033
     32 H3           0.0600    -4.6330   -14.9770 h1         1 TK9       0.042033
     33 H4          -0.2690    -3.3560   -13.7740 h1         1 TK9       0.042033
     34 H5          -4.2990    -3.7180   -15.8250 ha         1 TK9       0.133000
     35 H6          -4.8560    -2.1420   -17.6500 ha         1 TK9       0.144000
     36 H7          -2.6520     0.4600   -19.0000 h1         1 TK9       0.065200
     37 H8          -4.2990    -0.1270   -18.8310 h1         1 TK9       0.065200
     38 H9          -2.2520    -1.1160   -20.7570 hn         1 TK9       0.326500
     39 H10         -5.8820    -3.0620   -22.6460 ha         1 TK9       0.108500
     40 H11         -5.3810    -4.1290   -24.8100 ha         1 TK9       0.121500
     41 H12         -1.2540    -2.9150   -24.4730 ha         1 TK9       0.121500
     42 H13         -1.7230    -1.8480   -22.3170 ha         1 TK9       0.108500
     43 H14         -2.4190    -3.5520   -26.7650 hc         1 TK9       0.055700
     44 H15         -3.9020    -4.4760   -26.6770 hc         1 TK9       0.055700
     45 H16         -1.2330    -5.3170   -25.4390 hc         1 TK9       0.032700
     46 H17         -3.1680    -6.2790   -24.2190 hc         1 TK9       0.018700
     47 H18         -3.8260    -6.9230   -25.7170 hc         1 TK9       0.018700
     48 H19         -2.6330    -8.6720   -24.3820 hc         1 TK9       0.021700
     49 H20         -1.8360    -8.4410   -25.9490 hc         1 TK9       0.021700
     50 H21         -1.1260    -7.7370   -24.4770 hc         1 TK9       0.021700
@<TRIPOS>BOND
     1     1     2 1   
     2     2     3 1   
     3     2     4 1   
     4     2     5 1   
     5     5     6 ar  
     6     5    12 ar  
     7     6     7 ar  
     8     6    30 1   
     9     7     8 1   
    10     7    10 ar  
    11     8     9 1   
    12     9    31 1   
    13     9    32 1   
    14     9    33 1   
    15    10    11 ar  
    16    10    34 1   
    17    11    12 ar  
    18    11    35 1   
    19    12    13 1   
    20    13    14 1   
    21    13    36 1   
    22    13    37 1   
    23    14    15 1   
    24    14    38 1   
    25    15    16 2   
    26    15    17 1   
    27    17    18 ar  
    28    17    22 ar  
    29    18    19 ar  
    30    18    39 1   
    31    19    20 ar  
    32    19    40 1   
    33    20    21 ar  
    34    20    23 1   
    35    21    22 ar  
    36    21    41 1   
    37    22    42 1   
    38    23    24 1   
    39    23    43 1   
    40    23    44 1   
    41    24    25 1   
    42    24    27 1   
    43    24    45 1   
    44    25    26 1   
    45    25    46 1   
    46    25    47 1   
    47    26    48 1   
    48    26    49 1   
    49    26    50 1   
    50    27    28 1   
    51    27    29 1   
@<TRIPOS>SUBSTRUCTURE
     1 TK9         1 TEMP              0 ****  ****    0 ROOT
