@<TRIPOS>MOLECULE
TK9
   50    51     1     0     0
SMALL
abcg2


@<TRIPOS>ATOM
      1 F2           0.9510    -1.2910   -17.2010 f          1 TK9      -0.116667
      2 C15         -0.1660    -0.9170   -17.8300 c3         1 TK9       0.352300
      3 F           -0.2580     0.4130   -17.6800 f          1 TK9      -0.116667
      4 F1           0.0410    -1.1440   -19.1370 f          1 TK9      -0.116667
      5 C14         -1.3930    -1.6220   -17.3230 ca         1 TK9      -0.144300
      6 C16         -1.2540    -2.4600   -16.2180 ca         1 TK9      -0.167000
      7 C17         -2.3590    -3.1260   -15.7010 ca         1 TK9       0.138100
      8 O3          -2.3200    -3.9510   -14.6440 os         1 TK9      -0.340100
      9 C18         -1.0950    -4.1310   -13.9600 c3         1 TK9       0.147900
     10 C19         -3.6040    -2.9400   -16.3010 ca         1 TK9      -0.120000
     11 C20         -3.7240    -2.1030   -17.3900 ca         1 TK9      -0.063000
     12 C13         -2.6330    -1.4220   -17.9310 ca         1 TK9      -0.091300
     13 C12         -2.8840    -0.5440   -19.1400 c3         1 TK9       0.144300
     14 N           -2.8680    -1.2750   -20.3890 ns         1 TK9      -0.505900
     15 C           -3.9760    -1.7430   -20.9950 c          1 TK9       0.624700
     16 O           -5.0970    -1.6310   -20.5150 o          1 TK9      -0.629100
     17 C1          -3.7670    -2.4120   -22.3140 ca         1 TK9      -0.185600
     18 C11         -4.7340    -3.3080   -22.7620 ca         1 TK9      -0.074500
     19 C10         -4.5990    -3.9380   -23.9890 ca         1 TK9      -0.127500
     20 C4          -3.5070    -3.6810   -24.8150 ca         1 TK9      -0.013300
     21 C3          -2.5490    -2.7730   -24.3660 ca         1 TK9      -0.127500
     22 C2          -2.6710    -2.1480   -23.1360 ca         1 TK9      -0.074500
     23 C5          -3.3470    -4.3640   -26.1420 c3         1 TK9      -0.030100
     24 C6          -2.2710    -5.4650   -26.1300 c3         1 TK9      -0.187700
     25 C8          -2.6660    -6.6150   -25.2070 c3         1 TK9      -0.050400
     26 C9          -1.6210    -7.7210   -25.1360 c3         1 TK9      -0.077100
     27 C7          -2.0220    -5.9560   -27.5750 c          1 TK9       0.718000
     28 O2          -2.9830    -6.5250   -28.1360 o          1 TK9      -0.732000
     29 O1          -0.8960    -5.7410   -28.0660 o          1 TK9      -0.732000
     30 H1          -0.2820    -2.5900   -15.7640 ha         1 TK9       0.130000
     31 H2          -1.2990    -4.8110   -13.1380 h1         1 TK9       0.042033
     32 H3          -0.3300    -4.5750   -14.6020 h1         1 TK9       0.042033
     33 H4          -0.7130    -3.1910   -13.5530 h1         1 TK9       0.042033
     34 H5          -4.4730    -3.4490   -15.9030 ha         1 TK9       0.133000
     35 H6          -4.6990    -1.9660   -17.8390 ha         1 TK9       0.144000
     36 H7          -2.1730     0.2760   -19.2180 h1         1 TK9       0.065200
     37 H8          -3.8620    -0.0800   -19.0330 h1         1 TK9       0.065200
     38 H9          -1.9680    -1.5120   -20.7690 hn         1 TK9       0.326500
     39 H10         -5.5980    -3.5180   -22.1450 ha         1 TK9       0.108500
     40 H11         -5.3610    -4.6370   -24.3130 ha         1 TK9       0.121500
     41 H12         -1.6980    -2.5400   -24.9950 ha         1 TK9       0.121500
     42 H13         -1.9150    -1.4280   -22.8490 ha         1 TK9       0.108500
     43 H14         -3.0790    -3.6140   -26.8920 hc         1 TK9       0.055700
     44 H15         -4.3010    -4.7950   -26.4510 hc         1 TK9       0.055700
     45 H16         -1.3420    -5.0230   -25.7510 hc         1 TK9       0.032700
     46 H17         -2.8410    -6.2300   -24.1990 hc         1 TK9       0.018700
     47 H18         -3.6210    -7.0320   -25.5420 hc         1 TK9       0.018700
     48 H19         -1.9070    -8.4870   -24.4130 hc         1 TK9       0.021700
     49 H20         -1.4900    -8.2170   -26.0980 hc         1 TK9       0.021700
     50 H21         -0.6490    -7.3280   -24.8310 hc         1 TK9       0.021700
@<TRIPOS>BOND
     1     1     2 1   
     2     2     3 1   
     3     2     4 1   
     4     2     5 1   
     5     5     6 ar  
     6     5    12 ar  
     7     6     7 ar  
     8     6    30 1   
     9     7     8 1   
    10     7    10 ar  
    11     8     9 1   
    12     9    31 1   
    13     9    32 1   
    14     9    33 1   
    15    10    11 ar  
    16    10    34 1   
    17    11    12 ar  
    18    11    35 1   
    19    12    13 1   
    20    13    14 1   
    21    13    36 1   
    22    13    37 1   
    23    14    15 1   
    24    14    38 1   
    25    15    16 2   
    26    15    17 1   
    27    17    18 ar  
    28    17    22 ar  
    29    18    19 ar  
    30    18    39 1   
    31    19    20 ar  
    32    19    40 1   
    33    20    21 ar  
    34    20    23 1   
    35    21    22 ar  
    36    21    41 1   
    37    22    42 1   
    38    23    24 1   
    39    23    43 1   
    40    23    44 1   
    41    24    25 1   
    42    24    27 1   
    43    24    45 1   
    44    25    26 1   
    45    25    46 1   
    46    25    47 1   
    47    26    48 1   
    48    26    49 1   
    49    26    50 1   
    50    27    28 1   
    51    27    29 1   
@<TRIPOS>SUBSTRUCTURE
     1 TK9         1 TEMP              0 ****  ****    0 ROOT
