@<TRIPOS>MOLECULE
TKA
   88    93     1     0     0
SMALL
No Charge or Current Charge


@<TRIPOS>ATOM
      1 C29          3.6680     5.2420     2.0710 c6         1 TKA      -0.071000
      2 C30          3.5340     3.8410     2.7730 c6         1 TKA      -0.063067
      3 C31          3.1890     4.0020     4.2820 c6         1 TKA      -0.058367
      4 C32          4.3190     4.8030     4.9870 c6         1 TKA      -0.068400
      5 C33          4.4490     6.2060     4.3310 c6         1 TKA      -0.058367
      6 C34          4.7920     6.0420     2.8210 c6         1 TKA      -0.063067
      7 C37          2.3120     6.0160     2.2570 c6         1 TKA      -0.063067
      8 C36          1.8420     4.7680     4.4210 c6         1 TKA      -0.068400
      9 C38          3.1030     6.9720     4.4740 c6         1 TKA      -0.068400
     10 C35          1.9700     6.1740     3.7680 c6         1 TKA      -0.058367
     11 C25          4.0540     5.0680     0.5470 c3         1 TKA       0.267400
     12 C24          3.0840     4.2800    -0.2250 c1         1 TKA      -0.185100
     13 O03          4.2240     6.3230    -0.1170 oh         1 TKA      -0.647000
     14 C23          2.2570     3.6150    -0.8060 c1         1 TKA      -0.115100
     15 C22          1.2260     2.7890    -1.4510 c3         1 TKA       0.001700
     16 C20          0.5580     1.7500    -0.4930 c3         1 TKA      -0.045700
     17 C21         -0.2280     2.4770     0.6330 c3         1 TKA      -0.087100
     18 C17         -0.3480     0.7260    -1.3160 c5         1 TKA      -0.056700
     19 C13         -1.1090    -0.4140    -0.5380 c5         1 TKA      -0.034000
     20 C14         -1.6000    -1.2340    -1.8030 c5         1 TKA      -0.035500
     21 C15         -0.2590    -1.4750    -2.5480 c5         1 TKA      -0.070400
     22 C16          0.4680    -0.0980    -2.3890 c5         1 TKA      -0.079400
     23 C12         -2.4260    -0.0130     0.2470 c6         1 TKA      -0.063400
     24 C11         -3.3360    -1.2330     0.6760 c6         1 TKA      -0.072400
     25 C09         -3.6750    -2.1770    -0.5130 c6         1 TKA      -0.041200
     26 C08         -2.4700    -2.4810    -1.4180 c2         1 TKA      -0.081400
     27 C18         -0.1830    -1.2130     0.4400 c3         1 TKA      -0.080100
     28 C07         -2.1620    -3.6890    -1.9670 ce         1 TKA      -0.187000
     29 C06         -2.9260    -4.9410    -1.7800 ce         1 TKA      -0.161000
     30 C05         -2.5520    -6.1880    -2.1640 c2         1 TKA      -0.105400
     31 C04         -3.4560    -7.3970    -1.9260 c6         1 TKA      -0.032700
     32 C03         -3.7030    -8.2240    -3.2160 c6         1 TKA       0.211500
     33 C02         -2.4010    -8.5450    -3.9480 c2         1 TKA      -0.198400
     34 C01         -1.4930    -7.3230    -4.1710 c6         1 TKA       0.211500
     35 C10         -1.2340    -6.5710    -2.8440 c6         1 TKA      -0.032700
     36 C28         -2.1150    -9.8030    -4.3450 c2         1 TKA      -0.299000
     37 O01         -0.2470    -7.6990    -4.7650 oh         1 TKA      -0.653500
     38 O02         -4.5730    -7.5270    -4.1090 oh         1 TKA      -0.653500
     39 H1           2.7520     3.2360     2.2940 hc         1 TKA       0.043867
     40 H2           4.4680     3.2720     2.6650 hc         1 TKA       0.043867
     41 H3           3.0970     3.0110     4.7450 hc         1 TKA       0.048700
     42 H4           4.1000     4.9050     6.0590 hc         1 TKA       0.039700
     43 H5           5.2710     4.2600     4.9150 hc         1 TKA       0.039700
     44 H6           5.2480     6.7720     4.8290 hc         1 TKA       0.048700
     45 H7           5.7580     5.5290     2.7140 hc         1 TKA       0.043867
     46 H8           4.9240     7.0360     2.3710 hc         1 TKA       0.043867
     47 H9           2.3680     7.0090     1.7910 hc         1 TKA       0.043867
     48 H10          1.4910     5.4870     1.7540 hc         1 TKA       0.043867
     49 H11          1.0320     4.2000     3.9440 hc         1 TKA       0.039700
     50 H12          1.5700     4.8660     5.4810 hc         1 TKA       0.039700
     51 H13          2.8600     7.1170     5.5360 hc         1 TKA       0.039700
     52 H14          3.1890     7.9760     4.0360 hc         1 TKA       0.039700
     53 H15          1.0200     6.7150     3.8730 hc         1 TKA       0.048700
     54 H16          5.0050     4.5160     0.5220 h1         1 TKA       0.084700
     55 H17          3.3180     6.6480    -0.2990 ho         1 TKA       0.445000
     56 H18          0.4580     3.4440    -1.8790 hc         1 TKA       0.058700
     57 H19          1.7050     2.2770    -2.2930 hc         1 TKA       0.058700
     58 H20          1.4000     1.2380     0.0230 hc         1 TKA       0.054700
     59 H21         -1.1790     2.8730     0.2580 hc         1 TKA       0.035700
     60 H22         -0.4290     1.7950     1.4650 hc         1 TKA       0.035700
     61 H23          0.3390     3.3120     1.0590 hc         1 TKA       0.035700
     62 H24         -1.0850     1.3510    -1.8360 hc         1 TKA       0.044700
     63 H25         -2.2350    -0.5990    -2.4340 hc         1 TKA       0.052700
     64 H26          0.3320    -2.2810    -2.0980 hc         1 TKA       0.046200
     65 H27         -0.4120    -1.7380    -3.6010 hc         1 TKA       0.046200
     66 H28          0.5080     0.4380    -3.3440 hc         1 TKA       0.041200
     67 H29          1.5070    -0.2540    -2.0780 hc         1 TKA       0.041200
     68 H30         -2.1860     0.5580     1.1500 hc         1 TKA       0.040200
     69 H31         -3.0240     0.6630    -0.3800 hc         1 TKA       0.040200
     70 H32         -2.8250    -1.8100     1.4590 hc         1 TKA       0.040200
     71 H33         -4.2640    -0.8630     1.1320 hc         1 TKA       0.040200
     72 H34         -4.1200    -3.0910    -0.1030 hc         1 TKA       0.047200
     73 H35         -4.4560    -1.7080    -1.1270 hc         1 TKA       0.047200
     74 H36         -0.6180    -2.1810     0.7130 hc         1 TKA       0.034700
     75 H37          0.8080    -1.4160     0.0180 hc         1 TKA       0.034700
     76 H38         -0.0170    -0.6560     1.3690 hc         1 TKA       0.034700
     77 H39         -1.3070    -3.7720    -2.6300 ha         1 TKA       0.172000
     78 H40         -3.8980    -4.8370    -1.3000 ha         1 TKA       0.170000
     79 H41         -2.9850    -8.0460    -1.1760 hc         1 TKA       0.058200
     80 H42         -4.4190    -7.0920    -1.4950 hc         1 TKA       0.058200
     81 H43         -4.1830    -9.1670    -2.9140 h1         1 TKA       0.042700
     82 H44         -2.0170    -6.6300    -4.8470 h1         1 TKA       0.042700
     83 H45         -0.5930    -5.7060    -3.0390 hc         1 TKA       0.058200
     84 H46         -0.6610    -7.2180    -2.1670 hc         1 TKA       0.058200
     85 H47         -1.1930   -10.0690    -4.8610 ha         1 TKA       0.167500
     86 H48         -2.8030   -10.6290    -4.1570 ha         1 TKA       0.167500
     87 H49         -0.4770    -8.1480    -5.6060 ho         1 TKA       0.441500
     88 H50         -4.6010    -8.0670    -4.9280 ho         1 TKA       0.441500
@<TRIPOS>BOND
     1     1     2 1   
     2     1     6 1   
     3     1     7 1   
     4     1    11 1   
     5     2     3 1   
     6     2    39 1   
     7     2    40 1   
     8     3     4 1   
     9     3     8 1   
    10     3    41 1   
    11     4     5 1   
    12     4    42 1   
    13     4    43 1   
    14     5     6 1   
    15     5     9 1   
    16     5    44 1   
    17     6    45 1   
    18     6    46 1   
    19     7    10 1   
    20     7    47 1   
    21     7    48 1   
    22     8    10 1   
    23     8    49 1   
    24     8    50 1   
    25     9    10 1   
    26     9    51 1   
    27     9    52 1   
    28    10    53 1   
    29    11    12 1   
    30    11    13 1   
    31    11    54 1   
    32    12    14 3   
    33    13    55 1   
    34    14    15 1   
    35    15    16 1   
    36    15    56 1   
    37    15    57 1   
    38    16    17 1   
    39    16    18 1   
    40    16    58 1   
    41    17    59 1   
    42    17    60 1   
    43    17    61 1   
    44    18    19 1   
    45    18    22 1   
    46    18    62 1   
    47    19    20 1   
    48    19    23 1   
    49    19    27 1   
    50    20    21 1   
    51    20    26 1   
    52    20    63 1   
    53    21    22 1   
    54    21    64 1   
    55    21    65 1   
    56    22    66 1   
    57    22    67 1   
    58    23    24 1   
    59    23    68 1   
    60    23    69 1   
    61    24    25 1   
    62    24    70 1   
    63    24    71 1   
    64    25    26 1   
    65    25    72 1   
    66    25    73 1   
    67    26    28 2   
    68    27    74 1   
    69    27    75 1   
    70    27    76 1   
    71    28    29 1   
    72    28    77 1   
    73    29    30 2   
    74    29    78 1   
    75    30    31 1   
    76    30    35 1   
    77    31    32 1   
    78    31    79 1   
    79    31    80 1   
    80    32    33 1   
    81    32    38 1   
    82    32    81 1   
    83    33    34 1   
    84    33    36 2   
    85    34    35 1   
    86    34    37 1   
    87    34    82 1   
    88    35    83 1   
    89    35    84 1   
    90    36    85 1   
    91    36    86 1   
    92    37    87 1   
    93    38    88 1   
@<TRIPOS>SUBSTRUCTURE
     1 TKA         1 TEMP              0 ****  ****    0 ROOT
