@<TRIPOS>MOLECULE
TKA
   88    93     1     0     0
SMALL
abcg2


@<TRIPOS>ATOM
      1 C29          3.4500     5.0620     2.1240 c6         1 TKA      -0.071000
      2 C30          4.0250     3.6380     2.0980 c6         1 TKA      -0.063067
      3 C31          4.2290     3.1150     3.5200 c6         1 TKA      -0.058367
      4 C32          5.1960     4.0290     4.2740 c6         1 TKA      -0.068400
      5 C33          4.6220     5.4450     4.3200 c6         1 TKA      -0.058367
      6 C34          4.4240     5.9660     2.8940 c6         1 TKA      -0.063067
      7 C37          2.1070     5.0340     2.8660 c6         1 TKA      -0.063067
      8 C36          2.8810     3.0920     4.2440 c6         1 TKA      -0.068400
      9 C38          3.2730     5.4270     5.0410 c6         1 TKA      -0.068400
     10 C35          2.3050     4.5090     4.2910 c6         1 TKA      -0.058367
     11 C25          3.2990     5.5870     0.6800 c3         1 TKA       0.267400
     12 C24          2.4630     4.7030    -0.1420 c1         1 TKA      -0.185100
     13 O03          2.8370     6.9190     0.6140 oh         1 TKA      -0.647000
     14 C23          1.7720     3.9760    -0.8090 c1         1 TKA      -0.115100
     15 C22          0.9560     3.0660    -1.6010 c3         1 TKA       0.001700
     16 C20          0.0810     2.1240    -0.7480 c3         1 TKA      -0.045700
     17 C21         -0.9070     2.9490     0.0680 c3         1 TKA      -0.087100
     18 C17         -0.5760     1.0970    -1.6760 c5         1 TKA      -0.056700
     19 C13         -1.5450     0.0520    -1.0720 c5         1 TKA      -0.034000
     20 C14         -1.5940    -0.9670    -2.2390 c5         1 TKA      -0.035500
     21 C15         -0.1360    -1.1640    -2.6180 c5         1 TKA      -0.070400
     22 C16          0.4760     0.2350    -2.4250 c5         1 TKA      -0.079400
     23 C12         -2.9760     0.5300    -0.8100 c6         1 TKA      -0.063400
     24 C11         -3.9240    -0.6400    -0.5380 c6         1 TKA      -0.072400
     25 C09         -3.8850    -1.7000    -1.6440 c6         1 TKA      -0.041200
     26 C08         -2.4770    -2.1390    -1.9420 c2         1 TKA      -0.081400
     27 C18         -0.9470    -0.5840     0.1850 c3         1 TKA      -0.080100
     28 C07         -2.0360    -3.4070    -1.9480 ce         1 TKA      -0.187000
     29 C06         -2.8280    -4.5940    -1.6800 ce         1 TKA      -0.161000
     30 C05         -2.3970    -5.8650    -1.6870 c2         1 TKA      -0.105400
     31 C04         -3.3320    -7.0050    -1.4110 c6         1 TKA      -0.032700
     32 C03         -3.3460    -7.9960    -2.5750 c6         1 TKA       0.211500
     33 C02         -1.9310    -8.4240    -2.8820 c2         1 TKA      -0.198400
     34 C01         -0.9870    -7.2840    -3.1750 c6         1 TKA       0.211500
     35 C10         -0.9950    -6.3060    -1.9920 c6         1 TKA      -0.032700
     36 C28         -1.5650    -9.6990    -2.8380 c2         1 TKA      -0.299000
     37 O01          0.3400    -7.6880    -3.3930 oh         1 TKA      -0.653500
     38 O02         -3.9440    -7.3430    -3.6770 oh         1 TKA      -0.653500
     39 H1           3.3470     2.9720     1.5550 hc         1 TKA       0.043867
     40 H2           4.9750     3.6340     1.5500 hc         1 TKA       0.043867
     41 H3           4.6390     2.1020     3.4720 hc         1 TKA       0.048700
     42 H4           5.3570     3.6520     5.2890 hc         1 TKA       0.039700
     43 H5           6.1740     4.0350     3.7810 hc         1 TKA       0.039700
     44 H6           5.3140     6.1060     4.8510 hc         1 TKA       0.048700
     45 H7           5.3860     6.0000     2.3690 hc         1 TKA       0.043867
     46 H8           4.0440     6.9910     2.9260 hc         1 TKA       0.043867
     47 H9           1.6710     6.0380     2.9170 hc         1 TKA       0.043867
     48 H10          1.3930     4.4010     2.3270 hc         1 TKA       0.043867
     49 H11          2.1870     2.4170     3.7310 hc         1 TKA       0.039700
     50 H12          3.0050     2.7040     5.2600 hc         1 TKA       0.039700
     51 H13          3.4000     5.0790     6.0720 hc         1 TKA       0.039700
     52 H14          2.8620     6.4400     5.0980 hc         1 TKA       0.039700
     53 H15          1.3390     4.4940     4.8040 hc         1 TKA       0.048700
     54 H16          4.3040     5.6100     0.2420 h1         1 TKA       0.084700
     55 H17          1.9210     6.9400     0.9110 ho         1 TKA       0.445000
     56 H18          0.3090     3.6450    -2.2700 hc         1 TKA       0.058700
     57 H19          1.6210     2.4900    -2.2490 hc         1 TKA       0.058700
     58 H20          0.7470     1.5950    -0.0560 hc         1 TKA       0.054700
     59 H21         -1.6430     3.4340    -0.5770 hc         1 TKA       0.035700
     60 H22         -1.4470     2.3380     0.7890 hc         1 TKA       0.035700
     61 H23         -0.3920     3.7280     0.6330 hc         1 TKA       0.035700
     62 H24         -1.1530     1.6610    -2.4250 hc         1 TKA       0.044700
     63 H25         -2.0710    -0.4250    -3.0710 hc         1 TKA       0.052700
     64 H26          0.3460    -1.8900    -1.9590 hc         1 TKA       0.046200
     65 H27         -0.0190    -1.5360    -3.6370 hc         1 TKA       0.046200
     66 H28          0.7390     0.6880    -3.3820 hc         1 TKA       0.041200
     67 H29          1.4030     0.1790    -1.8480 hc         1 TKA       0.041200
     68 H30         -3.0210     1.2260     0.0290 hc         1 TKA       0.040200
     69 H31         -3.3340     1.0780    -1.6890 hc         1 TKA       0.040200
     70 H32         -3.6780    -1.1050     0.4200 hc         1 TKA       0.040200
     71 H33         -4.9440    -0.2630    -0.4380 hc         1 TKA       0.040200
     72 H34         -4.5350    -2.5330    -1.3770 hc         1 TKA       0.047200
     73 H35         -4.3040    -1.2600    -2.5570 hc         1 TKA       0.047200
     74 H36         -1.4950    -1.4780     0.4840 hc         1 TKA       0.034700
     75 H37          0.0910    -0.8870     0.0420 hc         1 TKA       0.034700
     76 H38         -0.9670     0.1090     1.0280 hc         1 TKA       0.034700
     77 H39         -0.9900    -3.5630    -2.1860 ha         1 TKA       0.172000
     78 H40         -3.8780    -4.4430    -1.4510 ha         1 TKA       0.170000
     79 H41         -3.0040    -7.5510    -0.5190 hc         1 TKA       0.058200
     80 H42         -4.3470    -6.6510    -1.2140 hc         1 TKA       0.058200
     81 H43         -3.9290    -8.8790    -2.2800 h1         1 TKA       0.042700
     82 H44         -1.3720    -6.7420    -4.0500 h1         1 TKA       0.042700
     83 H45         -0.3320    -5.4710    -2.2140 hc         1 TKA       0.058200
     84 H46         -0.5830    -6.8270    -1.1190 hc         1 TKA       0.058200
     85 H47         -0.5480   -10.0250    -3.0180 ha         1 TKA       0.167500
     86 H48         -2.2840   -10.4770    -2.6100 ha         1 TKA       0.167500
     87 H49          0.3760    -8.1840    -4.2170 ho         1 TKA       0.441500
     88 H50         -3.9940    -7.9720    -4.4040 ho         1 TKA       0.441500
@<TRIPOS>BOND
     1     1     2 1   
     2     1     6 1   
     3     1     7 1   
     4     1    11 1   
     5     2     3 1   
     6     2    39 1   
     7     2    40 1   
     8     3     4 1   
     9     3     8 1   
    10     3    41 1   
    11     4     5 1   
    12     4    42 1   
    13     4    43 1   
    14     5     6 1   
    15     5     9 1   
    16     5    44 1   
    17     6    45 1   
    18     6    46 1   
    19     7    10 1   
    20     7    47 1   
    21     7    48 1   
    22     8    10 1   
    23     8    49 1   
    24     8    50 1   
    25     9    10 1   
    26     9    51 1   
    27     9    52 1   
    28    10    53 1   
    29    11    12 1   
    30    11    13 1   
    31    11    54 1   
    32    12    14 3   
    33    13    55 1   
    34    14    15 1   
    35    15    16 1   
    36    15    56 1   
    37    15    57 1   
    38    16    17 1   
    39    16    18 1   
    40    16    58 1   
    41    17    59 1   
    42    17    60 1   
    43    17    61 1   
    44    18    19 1   
    45    18    22 1   
    46    18    62 1   
    47    19    20 1   
    48    19    23 1   
    49    19    27 1   
    50    20    21 1   
    51    20    26 1   
    52    20    63 1   
    53    21    22 1   
    54    21    64 1   
    55    21    65 1   
    56    22    66 1   
    57    22    67 1   
    58    23    24 1   
    59    23    68 1   
    60    23    69 1   
    61    24    25 1   
    62    24    70 1   
    63    24    71 1   
    64    25    26 1   
    65    25    72 1   
    66    25    73 1   
    67    26    28 2   
    68    27    74 1   
    69    27    75 1   
    70    27    76 1   
    71    28    29 1   
    72    28    77 1   
    73    29    30 2   
    74    29    78 1   
    75    30    31 1   
    76    30    35 1   
    77    31    32 1   
    78    31    79 1   
    79    31    80 1   
    80    32    33 1   
    81    32    38 1   
    82    32    81 1   
    83    33    34 1   
    84    33    36 2   
    85    34    35 1   
    86    34    37 1   
    87    34    82 1   
    88    35    83 1   
    89    35    84 1   
    90    36    85 1   
    91    36    86 1   
    92    37    87 1   
    93    38    88 1   
@<TRIPOS>SUBSTRUCTURE
     1 TKA         1 TEMP              0 ****  ****    0 ROOT
