@<TRIPOS>MOLECULE
TKB
   85    88     1     0     0
SMALL
abcg2


@<TRIPOS>ATOM
      1 N1          16.5850    31.6120    15.9370 ns         1 TKB      -0.497900
      2 C7          17.3820    34.0540    13.2100 c6         1 TKB      -0.082400
      3 C8          17.7170    32.9560    14.2260 c6         1 TKB      -0.086400
      4 N2          15.0300    33.4550    13.0850 n3         1 TKB      -0.741500
      5 C9          15.9160    28.7490    18.1320 c3         1 TKB      -0.075400
      6 O1          12.5400    33.1140    13.1440 o          1 TKB      -0.534000
      7 C1          16.0310    30.2440    17.8580 c3         1 TKB       0.033700
      8 C5          13.9200    31.0950    12.2040 c3         1 TKB      -0.382100
      9 C6          16.2500    33.6500    12.2830 c6         1 TKB       0.210800
     10 N3          11.3580    35.9250    22.8510 ns         1 TKB      -0.502900
     11 C4          15.2230    33.0620    14.4840 c6         1 TKB       0.185800
     12 O4          11.0740    36.8950    20.8370 o          1 TKB      -0.638100
     13 C3          16.4590    32.1680    14.6090 c6         1 TKB       0.088700
     14 C2          15.8330    30.5920    16.3810 c          1 TKB       0.587100
     15 N4          11.7200    39.7380    20.5810 nv         1 TKB      -1.063000
     16 C24         11.3940    36.9930    22.0220 c          1 TKB       0.662700
     17 C25         11.8340    38.2540    22.5970 cc         1 TKB      -0.369600
     18 C28         12.2440    38.5970    23.9050 cc         1 TKB       0.299900
     19 N6          12.6230    39.8450    23.9910 nd         1 TKB      -0.522800
     20 N5          12.4660    40.3510    22.7460 na         1 TKB       0.082800
     21 C27         12.7910    41.7260    22.4610 c3         1 TKB       0.067900
     22 C26         12.0020    39.4410    21.8760 cd         1 TKB       0.311000
     23 C22         12.1820    33.9220    21.6310 ca         1 TKB      -0.068300
     24 C19         11.9290    32.7200    20.9740 ca         1 TKB      -0.113500
     25 C18         12.9320    32.0550    20.2910 ca         1 TKB      -0.065000
     26 C21         13.4720    34.4370    21.5920 ca         1 TKB      -0.113500
     27 C20         14.4790    33.7730    20.9100 ca         1 TKB      -0.065000
     28 C17         14.2240    32.5810    20.2400 ca         1 TKB      -0.158600
     29 O           16.5190    32.2510    19.7660 o          1 TKB      -0.614100
     30 N           15.0450    30.9910    18.6110 ns         1 TKB      -0.507900
     31 C10         16.9390    27.8920    17.3900 c3         1 TKB      -0.073400
     32 C11         18.4060    28.2920    17.5580 c6         1 TKB      -0.062700
     33 C16         19.2990    27.3380    16.7630 c6         1 TKB      -0.073400
     34 C15         20.7780    27.6850    16.8940 c6         1 TKB      -0.072900
     35 C14         21.2060    27.7240    18.3570 c6         1 TKB      -0.075400
     36 C13         20.3280    28.6790    19.1570 c6         1 TKB      -0.072900
     37 C12         18.8490    28.3310    19.0210 c6         1 TKB      -0.073400
     38 S           13.7040    32.8610    12.3070 s6         1 TKB       1.204100
     39 O2          13.7290    33.4020    10.9570 o          1 TKB      -0.534000
     40 H1          17.1990    32.0790    16.5880 hn         1 TKB       0.328500
     41 H2          18.2580    34.2880    12.6040 hc         1 TKB       0.057700
     42 H3          17.1070    34.9780    13.7240 hc         1 TKB       0.057700
     43 H4          18.4630    32.2710    13.8190 hc         1 TKB       0.052200
     44 H5          18.1590    33.4160    15.1130 hc         1 TKB       0.052200
     45 H6          16.0200    28.6120    19.2110 hc         1 TKB       0.055200
     46 H7          14.9100    28.4080    17.8770 hc         1 TKB       0.055200
     47 H8          17.0080    30.5960    18.1890 h1         1 TKB       0.092700
     48 H9          13.9990    30.6760    13.2050 h1         1 TKB       0.104700
     49 H10         13.0500    30.6790    11.6970 h1         1 TKB       0.104700
     50 H11         14.8190    30.8710    11.6330 h1         1 TKB       0.104700
     51 H12         16.5320    32.7380    11.7420 h1         1 TKB       0.056700
     52 H13         16.0730    34.4310    11.5460 h1         1 TKB       0.056700
     53 H14         11.6940    36.0170    23.7950 hn         1 TKB       0.314500
     54 H15         15.3350    33.9550    15.1050 h1         1 TKB       0.073700
     55 H16         14.3390    32.5420    14.8490 h1         1 TKB       0.073700
     56 H17         16.3390    31.3350    13.9120 h1         1 TKB       0.067700
     57 H18         12.2900    40.4360    20.1300 hn         1 TKB       0.484000
     58 H19         11.5460    38.9260    20.0090 hn         1 TKB       0.484000
     59 H20         12.2740    37.9700    24.7850 h4         1 TKB       0.032100
     60 H21         13.0470    42.2140    23.3960 h1         1 TKB       0.057367
     61 H22         13.6430    41.8000    21.7840 h1         1 TKB       0.057367
     62 H23         11.9400    42.2410    22.0160 h1         1 TKB       0.057367
     63 H24         10.1680    34.6230    21.7490 h1         1 TKB       0.064700
     64 H25         10.7960    33.9970    23.2510 h1         1 TKB       0.064700
     65 H26         10.9330    32.2930    21.0000 ha         1 TKB       0.118500
     66 H27         12.6850    31.1110    19.8200 ha         1 TKB       0.122000
     67 H28         13.7060    35.3640    22.0990 ha         1 TKB       0.118500
     68 H29         15.4750    34.1950    20.8940 ha         1 TKB       0.122000
     69 H30         14.0780    30.7970    18.4070 hn         1 TKB       0.328500
     70 H31         16.8190    26.8580    17.7320 hc         1 TKB       0.048700
     71 H32         16.7000    27.8800    16.3230 hc         1 TKB       0.048700
     72 H33         18.5530    29.2970    17.1370 hc         1 TKB       0.039700
     73 H34         18.9990    27.3430    15.7110 hc         1 TKB       0.039950
     74 H35         19.1370    26.3160    17.1270 hc         1 TKB       0.039950
     75 H36         21.3840    26.9650    16.3390 hc         1 TKB       0.038200
     76 H37         20.9640    28.6640    16.4370 hc         1 TKB       0.038200
     77 H38         21.1290    26.7170    18.7830 hc         1 TKB       0.038200
     78 H39         22.2570    28.0150    18.4380 hc         1 TKB       0.038200
     79 H40         20.6210    28.6730    20.2100 hc         1 TKB       0.038200
     80 H41         20.4890    29.7020    18.7970 hc         1 TKB       0.038200
     81 H42         18.2530    29.0530    19.5860 hc         1 TKB       0.039950
     82 H43         18.6570    27.3510    19.4750 hc         1 TKB       0.039950
     83 C           15.3640    31.9290    19.5250 c          1 TKB       0.621700
     84 O3          15.0160    30.0050    15.6870 o          1 TKB      -0.610100
     85 C23         11.0580    34.6010    22.3810 c3         1 TKB       0.149300
@<TRIPOS>BOND
     1     1    13 1   
     2     1    14 1   
     3     1    40 1   
     4     2     3 1   
     5     2     9 1   
     6     2    41 1   
     7     2    42 1   
     8     3    13 1   
     9     3    43 1   
    10     3    44 1   
    11     4     9 1   
    12     4    11 1   
    13     4    38 1   
    14     5     7 1   
    15     5    31 1   
    16     5    45 1   
    17     5    46 1   
    18     6    38 2   
    19     7    14 1   
    20     7    30 1   
    21     7    47 1   
    22     8    38 1   
    23     8    48 1   
    24     8    49 1   
    25     8    50 1   
    26     9    51 1   
    27     9    52 1   
    28    10    16 1   
    29    10    53 1   
    30    10    85 1   
    31    11    13 1   
    32    11    54 1   
    33    11    55 1   
    34    12    16 2   
    35    13    56 1   
    36    14    84 2   
    37    15    22 1   
    38    15    57 1   
    39    15    58 1   
    40    16    17 1   
    41    17    18 1   
    42    17    22 2   
    43    18    19 2   
    44    18    59 1   
    45    19    20 1   
    46    20    21 1   
    47    20    22 1   
    48    21    60 1   
    49    21    61 1   
    50    21    62 1   
    51    23    24 ar  
    52    23    26 ar  
    53    23    85 1   
    54    24    25 ar  
    55    24    65 1   
    56    25    28 ar  
    57    25    66 1   
    58    26    27 ar  
    59    26    67 1   
    60    27    28 ar  
    61    27    68 1   
    62    28    83 1   
    63    29    83 2   
    64    30    69 1   
    65    30    83 1   
    66    31    32 1   
    67    31    70 1   
    68    31    71 1   
    69    32    33 1   
    70    32    37 1   
    71    32    72 1   
    72    33    34 1   
    73    33    73 1   
    74    33    74 1   
    75    34    35 1   
    76    34    75 1   
    77    34    76 1   
    78    35    36 1   
    79    35    77 1   
    80    35    78 1   
    81    36    37 1   
    82    36    79 1   
    83    36    80 1   
    84    37    81 1   
    85    37    82 1   
    86    38    39 2   
    87    63    85 1   
    88    64    85 1   
@<TRIPOS>SUBSTRUCTURE
     1 TKB         1 TEMP              0 ****  ****    0 ROOT
