@<TRIPOS>MOLECULE
TKB
   85    88     1     0     0
SMALL
No Charge or Current Charge


@<TRIPOS>ATOM
      1 N1          16.7010    31.1480    15.6320 ns         1 TKB      -0.497900
      2 C7          18.0250    31.3590    12.0460 c6         1 TKB      -0.082400
      3 C8          17.7020    30.6840    13.4110 c6         1 TKB      -0.086400
      4 N2          16.4080    33.2430    12.4330 n3         1 TKB      -0.741500
      5 C9          15.9650    29.3370    18.2550 c3         1 TKB      -0.075400
      6 O1          14.9020    35.2740    12.8360 o          1 TKB      -0.534000
      7 C1          16.0720    30.8720    18.0210 c3         1 TKB       0.033700
      8 C5          13.6550    32.9270    12.6100 c3         1 TKB      -0.382100
      9 C6          16.8130    32.1510    11.5030 c6         1 TKB       0.210800
     10 N3          11.6120    36.0900    23.4300 ns         1 TKB      -0.502900
     11 C4          16.6460    32.9450    13.8810 c6         1 TKB       0.185800
     12 O4          10.0110    36.4650    21.8600 o          1 TKB      -0.638100
     13 C3          16.5780    31.4230    14.1940 c6         1 TKB       0.088700
     14 C2          15.6960    31.2840    16.5660 c          1 TKB       0.587100
     15 N4           9.7150    39.3470    21.0470 nv         1 TKB      -1.063000
     16 C24         10.8880    36.9020    22.5910 c          1 TKB       0.662700
     17 C25         11.2670    38.3160    22.6610 cc         1 TKB      -0.369600
     18 C28         12.2710    38.8830    23.4620 cc         1 TKB       0.299900
     19 N6          12.4070    40.1880    23.3240 nd         1 TKB      -0.522800
     20 N5          11.4320    40.4850    22.3760 na         1 TKB       0.082800
     21 C27         11.2230    41.8670    21.9140 c3         1 TKB       0.067900
     22 C26         10.7280    39.3390    21.9650 cd         1 TKB       0.311000
     23 C22         12.4920    33.9090    22.6850 ca         1 TKB      -0.068300
     24 C19         12.2410    33.6350    21.3300 ca         1 TKB      -0.113500
     25 C18         13.1960    32.9640    20.5460 ca         1 TKB      -0.065000
     26 C21         13.7140    33.5060    23.2510 ca         1 TKB      -0.113500
     27 C20         14.6720    32.8360    22.4720 ca         1 TKB      -0.065000
     28 C17         14.4300    32.5530    21.1080 ca         1 TKB      -0.158600
     29 O           16.5520    31.4750    20.7860 o          1 TKB      -0.614100
     30 N           15.1930    31.5840    18.9760 ns         1 TKB      -0.507900
     31 C10         16.8720    28.4420    17.3680 c3         1 TKB      -0.073400
     32 C11         18.4110    28.6960    17.4540 c6         1 TKB      -0.062700
     33 C16         19.1680    27.8330    16.4060 c6         1 TKB      -0.073400
     34 C15         20.6960    28.0780    16.4600 c6         1 TKB      -0.072900
     35 C14         21.2530    27.8190    17.8800 c6         1 TKB      -0.075400
     36 C13         20.5100    28.6760    18.9330 c6         1 TKB      -0.072900
     37 C12         18.9810    28.4370    18.8790 c6         1 TKB      -0.073400
     38 S           14.9320    34.0390    12.0460 s6         1 TKB       1.204100
     39 O2          14.8730    34.1240    10.5840 o          1 TKB      -0.534000
     40 H1          17.5850    30.7890    15.9720 hn         1 TKB       0.328500
     41 H2          18.3390    30.6010    11.3160 hc         1 TKB       0.057700
     42 H3          18.8750    32.0450    12.1620 hc         1 TKB       0.057700
     43 H4          17.3980    29.6400    13.2520 hc         1 TKB       0.052200
     44 H5          18.6250    30.6440    14.0070 hc         1 TKB       0.052200
     45 H6          16.1770    29.1180    19.3080 hc         1 TKB       0.055200
     46 H7          14.9230    29.0330    18.0930 hc         1 TKB       0.055200
     47 H8          17.1050    31.1990    18.1970 h1         1 TKB       0.092700
     48 H9          13.7630    32.8100    13.6920 h1         1 TKB       0.104700
     49 H10         12.6930    33.3850    12.3590 h1         1 TKB       0.104700
     50 H11         13.7870    31.9750    12.0880 h1         1 TKB       0.104700
     51 H12         15.9830    31.4450    11.3490 h1         1 TKB       0.056700
     52 H13         17.0670    32.5650    10.5160 h1         1 TKB       0.056700
     53 H14         12.3230    36.5330    23.9960 hn         1 TKB       0.314500
     54 H15         17.6440    33.3070    14.1690 h1         1 TKB       0.073700
     55 H16         15.9340    33.4830    14.5250 h1         1 TKB       0.073700
     56 H17         15.6020    31.0440    13.8560 h1         1 TKB       0.067700
     57 H18          9.5540    40.1600    20.4560 hn         1 TKB       0.484000
     58 H19          9.3390    38.4520    20.7330 hn         1 TKB       0.484000
     59 H20         12.9250    38.3740    24.1580 h4         1 TKB       0.032100
     60 H21         11.8810    42.5500    22.4650 h1         1 TKB       0.057367
     61 H22         11.4500    41.9330    20.8440 h1         1 TKB       0.057367
     62 H23         10.1790    42.1560    22.0860 h1         1 TKB       0.057367
     63 H24         10.4450    34.3480    23.2090 h1         1 TKB       0.064700
     64 H25         11.5620    34.3450    24.5800 h1         1 TKB       0.064700
     65 H26         11.3000    33.9450    20.8790 ha         1 TKB       0.118500
     66 H27         12.9570    32.7740    19.5020 ha         1 TKB       0.122000
     67 H28         13.9250    33.7140    24.2980 ha         1 TKB       0.118500
     68 H29         15.6100    32.5350    22.9360 ha         1 TKB       0.122000
     69 H30         14.3020    31.9230    18.6330 hn         1 TKB       0.328500
     70 H31         16.6690    27.3970    17.6360 hc         1 TKB       0.048700
     71 H32         16.5390    28.5350    16.3270 hc         1 TKB       0.048700
     72 H33         18.5850    29.7500    17.2050 hc         1 TKB       0.039700
     73 H34         18.7990    28.0590    15.3960 hc         1 TKB       0.039950
     74 H35         18.9610    26.7670    16.5810 hc         1 TKB       0.039950
     75 H36         21.2030    27.4270    15.7360 hc         1 TKB       0.038200
     76 H37         20.9150    29.1120    16.1580 hc         1 TKB       0.038200
     77 H38         21.1500    26.7540    18.1300 hc         1 TKB       0.038200
     78 H39         22.3280    28.0440    17.9060 hc         1 TKB       0.038200
     79 H40         20.8890    28.4420    19.9380 hc         1 TKB       0.038200
     80 H41         20.7240    29.7400    18.7610 hc         1 TKB       0.038200
     81 H42         18.4940    29.0950    19.6110 hc         1 TKB       0.039950
     82 H43         18.7580    27.4060    19.1890 hc         1 TKB       0.039950
     83 C           15.4860    31.8270    20.3000 c          1 TKB       0.621700
     84 O3          14.5940    31.7230    16.2610 o          1 TKB      -0.610100
     85 C23         11.4550    34.6380    23.5280 c3         1 TKB       0.149300
@<TRIPOS>BOND
     1     1    13 1   
     2     1    14 1   
     3     1    40 1   
     4     2     3 1   
     5     2     9 1   
     6     2    41 1   
     7     2    42 1   
     8     3    13 1   
     9     3    43 1   
    10     3    44 1   
    11     4     9 1   
    12     4    11 1   
    13     4    38 1   
    14     5     7 1   
    15     5    31 1   
    16     5    45 1   
    17     5    46 1   
    18     6    38 2   
    19     7    14 1   
    20     7    30 1   
    21     7    47 1   
    22     8    38 1   
    23     8    48 1   
    24     8    49 1   
    25     8    50 1   
    26     9    51 1   
    27     9    52 1   
    28    10    16 1   
    29    10    53 1   
    30    10    85 1   
    31    11    13 1   
    32    11    54 1   
    33    11    55 1   
    34    12    16 2   
    35    13    56 1   
    36    14    84 2   
    37    15    22 1   
    38    15    57 1   
    39    15    58 1   
    40    16    17 1   
    41    17    18 1   
    42    17    22 2   
    43    18    19 2   
    44    18    59 1   
    45    19    20 1   
    46    20    21 1   
    47    20    22 1   
    48    21    60 1   
    49    21    61 1   
    50    21    62 1   
    51    23    24 ar  
    52    23    26 ar  
    53    23    85 1   
    54    24    25 ar  
    55    24    65 1   
    56    25    28 ar  
    57    25    66 1   
    58    26    27 ar  
    59    26    67 1   
    60    27    28 ar  
    61    27    68 1   
    62    28    83 1   
    63    29    83 2   
    64    30    69 1   
    65    30    83 1   
    66    31    32 1   
    67    31    70 1   
    68    31    71 1   
    69    32    33 1   
    70    32    37 1   
    71    32    72 1   
    72    33    34 1   
    73    33    73 1   
    74    33    74 1   
    75    34    35 1   
    76    34    75 1   
    77    34    76 1   
    78    35    36 1   
    79    35    77 1   
    80    35    78 1   
    81    36    37 1   
    82    36    79 1   
    83    36    80 1   
    84    37    81 1   
    85    37    82 1   
    86    38    39 2   
    87    63    85 1   
    88    64    85 1   
@<TRIPOS>SUBSTRUCTURE
     1 TKB         1 TEMP              0 ****  ****    0 ROOT
