@<TRIPOS>MOLECULE
TKD
   91    96     1     0     0
SMALL
No Charge or Current Charge


@<TRIPOS>ATOM
      1 C29          7.3340    -0.0460     0.3450 c6         1 TKD      -0.037000
      2 C30          8.6200     0.6350    -0.2350 c6         1 TKD      -0.065733
      3 C31          9.8670    -0.2710    -0.0220 c6         1 TKD      -0.058033
      4 C32         10.0750    -0.5210     1.4990 c6         1 TKD      -0.068400
      5 C33          8.8200    -1.2250     2.0860 c6         1 TKD      -0.058033
      6 C34          7.5740    -0.3190     1.8690 c6         1 TKD      -0.065733
      7 C37          7.1410    -1.4280    -0.3700 c6         1 TKD      -0.065733
      8 C36          9.6460    -1.6310    -0.7440 c6         1 TKD      -0.068400
      9 C38          8.5980    -2.5840     1.3630 c6         1 TKD      -0.068400
     10 C35          8.3880    -2.3360    -0.1580 c6         1 TKD      -0.058033
     11 C26          6.0560     0.8580     0.1980 c3         1 TKD      -0.098400
     12 C25          5.6090     1.2870    -1.2310 c3         1 TKD       0.263400
     13 C24          4.2140     1.7380    -1.2400 c1         1 TKD      -0.192100
     14 C23          3.0580     2.0940    -1.2110 c1         1 TKD      -0.111100
     15 C22          1.6470     2.5040    -1.1350 c3         1 TKD       0.002700
     16 C20          0.8230     1.7470    -0.0420 c3         1 TKD      -0.045700
     17 C17         -0.7250     1.9570    -0.2320 c5         1 TKD      -0.056700
     18 C21          1.3410     2.1130     1.3760 c3         1 TKD      -0.087100
     19 O03          6.4170     2.3640    -1.7040 oh         1 TKD      -0.646000
     20 C13         -1.7390     1.2660     0.7690 c5         1 TKD      -0.035000
     21 C14         -3.0510     1.5870    -0.0290 c5         1 TKD      -0.035500
     22 C15         -2.7220     1.0050    -1.4300 c5         1 TKD      -0.070400
     23 C16         -1.2440     1.4590    -1.6390 c5         1 TKD      -0.079400
     24 C12         -1.8690     1.9320     2.1810 c6         1 TKD      -0.063400
     25 C11         -3.0880     1.3880     2.9760 c6         1 TKD      -0.071400
     26 C09         -4.4170     1.4810     2.1840 c6         1 TKD      -0.042200
     27 C08         -4.2760     1.0230     0.7270 c2         1 TKD      -0.081400
     28 C18         -1.4390    -0.2630     0.9590 c3         1 TKD      -0.079100
     29 C07         -5.1790     0.2650     0.0410 ce         1 TKD      -0.188000
     30 C06         -6.4460    -0.2700     0.5830 ce         1 TKD      -0.163000
     31 C05         -7.2610    -1.1830    -0.0060 c2         1 TKD      -0.105400
     32 C04         -8.5620    -1.6310     0.6580 c6         1 TKD      -0.032200
     33 C03         -9.7900    -1.5010    -0.2830 c6         1 TKD       0.212000
     34 C02         -9.5310    -2.1270    -1.6520 c2         1 TKD      -0.200400
     35 C01         -8.2120    -1.6790    -2.3040 c6         1 TKD       0.212000
     36 C10         -7.0160    -1.8860    -1.3440 c6         1 TKD      -0.032200
     37 C28        -10.4110    -2.9920    -2.2010 c2         1 TKD      -0.297000
     38 O01         -7.9730    -2.3760    -3.5310 oh         1 TKD      -0.653500
     39 O02        -10.1480    -0.1300    -0.4660 oh         1 TKD      -0.653500
     40 H1           8.5040     0.8260    -1.3100 hc         1 TKD       0.041200
     41 H2           8.7800     1.6130     0.2400 hc         1 TKD       0.041200
     42 H3          10.7560     0.2250    -0.4370 hc         1 TKD       0.047700
     43 H4          10.9690    -1.1390     1.6630 hc         1 TKD       0.039200
     44 H5          10.2550     0.4300     2.0190 hc         1 TKD       0.039200
     45 H6           8.9650    -1.4000     3.1610 hc         1 TKD       0.047700
     46 H7           7.7120     0.6300     2.4070 hc         1 TKD       0.041200
     47 H8           6.6900    -0.7960     2.3150 hc         1 TKD       0.041200
     48 H9           6.2430    -1.9330     0.0140 hc         1 TKD       0.041200
     49 H10          6.9800    -1.2900    -1.4470 hc         1 TKD       0.041200
     50 H11          9.5220    -1.4720    -1.8240 hc         1 TKD       0.039200
     51 H12         10.5300    -2.2720    -0.6250 hc         1 TKD       0.039200
     52 H13          9.4610    -3.2450     1.5250 hc         1 TKD       0.039200
     53 H14          7.7260    -3.1020     1.7870 hc         1 TKD       0.039200
     54 H15          8.2340    -3.2960    -0.6680 hc         1 TKD       0.047700
     55 H16          5.2180     0.3170     0.6570 hc         1 TKD       0.048700
     56 H17          6.1750     1.7640     0.8060 hc         1 TKD       0.048700
     57 H18          5.6800     0.4270    -1.9100 h1         1 TKD       0.085700
     58 H19          1.5990     3.5850    -0.9510 hc         1 TKD       0.058700
     59 H20          1.2140     2.3390    -2.1270 hc         1 TKD       0.058700
     60 H21          1.0290     0.6780    -0.1810 hc         1 TKD       0.053700
     61 H22         -0.8660     3.0440    -0.1740 hc         1 TKD       0.045700
     62 H23          1.0370     1.3570     2.1050 hc         1 TKD       0.035700
     63 H24          2.4350     2.1490     1.4170 hc         1 TKD       0.035700
     64 H25          0.9610     3.0920     1.6930 hc         1 TKD       0.035700
     65 H26          6.0960     3.1630    -1.2350 ho         1 TKD       0.442000
     66 H27         -3.1930     2.6730    -0.1170 hc         1 TKD       0.052700
     67 H28         -2.7990    -0.0880    -1.4630 hc         1 TKD       0.046200
     68 H29         -3.3860     1.3980    -2.2090 hc         1 TKD       0.046200
     69 H30         -1.1810     2.2600    -2.3840 hc         1 TKD       0.041200
     70 H31         -0.6450     0.6260    -2.0260 hc         1 TKD       0.041200
     71 H32         -0.9720     1.7730     2.7870 hc         1 TKD       0.040700
     72 H33         -1.9700     3.0210     2.0680 hc         1 TKD       0.040700
     73 H34         -2.9080     0.3430     3.2640 hc         1 TKD       0.040200
     74 H35         -3.1860     1.9400     3.9200 hc         1 TKD       0.040200
     75 H36         -5.1750     0.9070     2.7270 hc         1 TKD       0.047200
     76 H37         -4.7630     2.5240     2.1870 hc         1 TKD       0.047200
     77 H38         -0.6150    -0.4180     1.6650 hc         1 TKD       0.034367
     78 H39         -2.3070    -0.8100     1.3450 hc         1 TKD       0.034367
     79 H40         -1.1450    -0.7560     0.0270 hc         1 TKD       0.034367
     80 H41         -5.0060     0.0430    -1.0070 ha         1 TKD       0.173000
     81 H42         -6.7610     0.1330     1.5440 ha         1 TKD       0.170000
     82 H43         -8.4590    -2.6820     0.9600 hc         1 TKD       0.058200
     83 H44         -8.7470    -1.0710     1.5840 hc         1 TKD       0.058200
     84 H45        -10.6280    -2.0280     0.1970 h1         1 TKD       0.042700
     85 H46         -8.2850    -0.6010    -2.5130 h1         1 TKD       0.042700
     86 H47         -6.0960    -1.5540    -1.8340 hc         1 TKD       0.058200
     87 H48         -6.8820    -2.9610    -1.1600 hc         1 TKD       0.058200
     88 H49        -10.2540    -3.4640    -3.1710 ha         1 TKD       0.167500
     89 H50        -11.3320    -3.2710    -1.6870 ha         1 TKD       0.167500
     90 H51         -8.7490    -2.1860    -4.1000 ho         1 TKD       0.441500
     91 H52        -10.8610    -0.1300    -1.1390 ho         1 TKD       0.441500
@<TRIPOS>BOND
     1     1     2 1   
     2     1     6 1   
     3     1     7 1   
     4     1    11 1   
     5     2     3 1   
     6     2    40 1   
     7     2    41 1   
     8     3     4 1   
     9     3     8 1   
    10     3    42 1   
    11     4     5 1   
    12     4    43 1   
    13     4    44 1   
    14     5     6 1   
    15     5     9 1   
    16     5    45 1   
    17     6    46 1   
    18     6    47 1   
    19     7    10 1   
    20     7    48 1   
    21     7    49 1   
    22     8    10 1   
    23     8    50 1   
    24     8    51 1   
    25     9    10 1   
    26     9    52 1   
    27     9    53 1   
    28    10    54 1   
    29    11    12 1   
    30    11    55 1   
    31    11    56 1   
    32    12    13 1   
    33    12    19 1   
    34    12    57 1   
    35    13    14 3   
    36    14    15 1   
    37    15    16 1   
    38    15    58 1   
    39    15    59 1   
    40    16    17 1   
    41    16    18 1   
    42    16    60 1   
    43    17    20 1   
    44    17    23 1   
    45    17    61 1   
    46    18    62 1   
    47    18    63 1   
    48    18    64 1   
    49    19    65 1   
    50    20    21 1   
    51    20    24 1   
    52    20    28 1   
    53    21    22 1   
    54    21    27 1   
    55    21    66 1   
    56    22    23 1   
    57    22    67 1   
    58    22    68 1   
    59    23    69 1   
    60    23    70 1   
    61    24    25 1   
    62    24    71 1   
    63    24    72 1   
    64    25    26 1   
    65    25    73 1   
    66    25    74 1   
    67    26    27 1   
    68    26    75 1   
    69    26    76 1   
    70    27    29 2   
    71    28    77 1   
    72    28    78 1   
    73    28    79 1   
    74    29    30 1   
    75    29    80 1   
    76    30    31 2   
    77    30    81 1   
    78    31    32 1   
    79    31    36 1   
    80    32    33 1   
    81    32    82 1   
    82    32    83 1   
    83    33    34 1   
    84    33    39 1   
    85    33    84 1   
    86    34    35 1   
    87    34    37 2   
    88    35    36 1   
    89    35    38 1   
    90    35    85 1   
    91    36    86 1   
    92    36    87 1   
    93    37    88 1   
    94    37    89 1   
    95    38    90 1   
    96    39    91 1   
@<TRIPOS>SUBSTRUCTURE
     1 TKD         1 TEMP              0 ****  ****    0 ROOT
