@<TRIPOS>MOLECULE
TKD
   91    96     1     0     0
SMALL
bcc


@<TRIPOS>ATOM
      1 C29          7.2370    -0.3250     0.3070 c6         1 TKD      -0.037000
      2 C30          8.1400     0.7170     0.9890 c6         1 TKD      -0.065733
      3 C31          9.5070     0.1130     1.3200 c6         1 TKD      -0.058033
      4 C32          9.3340    -1.0690     2.2740 c6         1 TKD      -0.068400
      5 C33          8.4520    -2.1270     1.6110 c6         1 TKD      -0.058033
      6 C34          7.0910    -1.5200     1.2690 c6         1 TKD      -0.065733
      7 C37          7.9290    -0.8260    -0.9670 c6         1 TKD      -0.065733
      8 C36         10.1730    -0.3690     0.0290 c6         1 TKD      -0.068400
      9 C38          9.1170    -2.6150     0.3210 c6         1 TKD      -0.068400
     10 C35          9.2950    -1.4340    -0.6340 c6         1 TKD      -0.058033
     11 C26          5.8250     0.2070     0.0200 c3         1 TKD      -0.098400
     12 C25          5.6470     1.1980    -1.1350 c3         1 TKD       0.240200
     13 C24          4.2160     1.4880    -1.3120 c1         1 TKD      -0.192100
     14 C23          3.0450     1.7490    -1.4240 c1         1 TKD      -0.111100
     15 C22          1.6260     2.0590    -1.5380 c3         1 TKD       0.002700
     16 C20          0.7780     1.5220    -0.3660 c3         1 TKD      -0.045700
     17 C17         -0.6960     1.8590    -0.6280 c5         1 TKD      -0.056700
     18 C21          1.3130     2.0640     0.9540 c3         1 TKD      -0.087100
     19 O03          6.3830     2.3950    -0.9990 oh         1 TKD      -0.583800
     20 C13         -1.7500     1.4190     0.4150 c5         1 TKD      -0.035000
     21 C14         -3.0430     1.5580    -0.4320 c5         1 TKD      -0.035500
     22 C15         -2.6960     0.8920    -1.7530 c5         1 TKD      -0.070400
     23 C16         -1.2100     1.2410    -1.9560 c5         1 TKD      -0.079400
     24 C12         -1.9050     2.3320     1.6340 c6         1 TKD      -0.063400
     25 C11         -3.1630     1.9980     2.4350 c6         1 TKD      -0.071400
     26 C09         -4.4320     1.9900     1.5760 c6         1 TKD      -0.042200
     27 C08         -4.2670     1.1610     0.3320 c2         1 TKD      -0.081400
     28 C18         -1.5230    -0.0330     0.8410 c3         1 TKD      -0.079100
     29 C07         -5.1010     0.1870    -0.0700 ce         1 TKD      -0.138000
     30 C06         -6.2760    -0.2800     0.6410 ce         1 TKD      -0.113000
     31 C05         -7.1550    -1.2070     0.2310 c2         1 TKD      -0.105400
     32 C04         -8.3060    -1.6180     1.1030 c6         1 TKD      -0.032200
     33 C03         -9.6420    -1.4460     0.3830 c6         1 TKD       0.188800
     34 C02         -9.5840    -2.1570    -0.9470 c2         1 TKD      -0.200400
     35 C01         -8.4510    -1.7140    -1.8390 c6         1 TKD       0.188800
     36 C10         -7.1220    -1.9040    -1.0990 c6         1 TKD      -0.032200
     37 C28        -10.4360    -3.1280    -1.2570 c2         1 TKD      -0.197000
     38 O01         -8.3740    -2.4180    -3.0520 oh         1 TKD      -0.591300
     39 O02         -9.8610    -0.0580     0.2210 oh         1 TKD      -0.591300
     40 H1           8.2710     1.5870     0.3430 hc         1 TKD       0.041200
     41 H2           7.6540     1.0720     1.9050 hc         1 TKD       0.041200
     42 H3          10.1320     0.8770     1.7920 hc         1 TKD       0.047700
     43 H4          10.3100    -1.4960     2.5280 hc         1 TKD       0.039200
     44 H5           8.8820    -0.7360     3.2140 hc         1 TKD       0.039200
     45 H6           8.3110    -2.9700     2.2940 hc         1 TKD       0.047700
     46 H7           6.5810    -1.1940     2.1840 hc         1 TKD       0.041200
     47 H8           6.4520    -2.2830     0.8100 hc         1 TKD       0.041200
     48 H9           7.2940    -1.5680    -1.4650 hc         1 TKD       0.041200
     49 H10          8.0690    -0.0050    -1.6780 hc         1 TKD       0.041200
     50 H11         10.3240     0.4730    -0.6550 hc         1 TKD       0.039200
     51 H12         11.1640    -0.7820     0.2460 hc         1 TKD       0.039200
     52 H13         10.0880    -3.0710     0.5440 hc         1 TKD       0.039200
     53 H14          8.5010    -3.3890    -0.1480 hc         1 TKD       0.039200
     54 H15          9.7700    -1.7760    -1.5590 hc         1 TKD       0.047700
     55 H16          5.1800    -0.6470    -0.2120 hc         1 TKD       0.048700
     56 H17          5.4150     0.6510     0.9350 hc         1 TKD       0.048700
     57 H18          6.0150     0.7360    -2.0560 h1         1 TKD       0.085700
     58 H19          1.5030     3.1460    -1.6010 hc         1 TKD       0.058700
     59 H20          1.2590     1.6590    -2.4860 hc         1 TKD       0.058700
     60 H21          0.8860     0.4310    -0.3620 hc         1 TKD       0.053700
     61 H22         -0.7710     2.9530    -0.7080 hc         1 TKD       0.045700
     62 H23          0.8470     1.5820     1.8110 hc         1 TKD       0.035700
     63 H24          2.3860     1.8910     1.0370 hc         1 TKD       0.035700
     64 H25          1.1430     3.1400     1.0400 hc         1 TKD       0.035700
     65 H26          6.1590     2.7910    -0.1500 ho         1 TKD       0.403000
     66 H27         -3.1400     2.6380    -0.6270 hc         1 TKD       0.052700
     67 H28         -2.8300    -0.1900    -1.6940 hc         1 TKD       0.046200
     68 H29         -3.3260     1.2440    -2.5710 hc         1 TKD       0.046200
     69 H30         -1.0740     1.9390    -2.7840 hc         1 TKD       0.041200
     70 H31         -0.6390     0.3450    -2.2130 hc         1 TKD       0.041200
     71 H32         -1.0390     2.2690     2.2940 hc         1 TKD       0.040700
     72 H33         -1.9580     3.3700     1.2860 hc         1 TKD       0.040700
     73 H34         -3.0480     1.0230     2.9160 hc         1 TKD       0.040200
     74 H35         -3.2830     2.7230     3.2440 hc         1 TKD       0.040200
     75 H36         -5.2810     1.6700     2.1800 hc         1 TKD       0.047200
     76 H37         -4.6470     3.0200     1.2650 hc         1 TKD       0.047200
     77 H38         -0.7080    -0.1080     1.5650 hc         1 TKD       0.034367
     78 H39         -2.4090    -0.4660     1.3060 hc         1 TKD       0.034367
     79 H40         -1.2600    -0.6750    -0.0020 hc         1 TKD       0.034367
     80 H41         -4.8710    -0.3050    -1.0100 ha         1 TKD       0.123000
     81 H42         -6.4570     0.1480     1.6230 ha         1 TKD       0.120000
     82 H43         -8.2110    -2.6770     1.3680 hc         1 TKD       0.058200
     83 H44         -8.3140    -1.0540     2.0380 hc         1 TKD       0.058200
     84 H45        -10.4330    -1.9000     0.9940 h1         1 TKD       0.042700
     85 H46         -8.5700    -0.6370    -2.0260 h1         1 TKD       0.042700
     86 H47         -6.3090    -1.5440    -1.7300 hc         1 TKD       0.058200
     87 H48         -6.9670    -2.9790    -0.9440 hc         1 TKD       0.058200
     88 H49        -10.3860    -3.6740    -2.1890 ha         1 TKD       0.117500
     89 H50        -11.2210    -3.4190    -0.5690 ha         1 TKD       0.117500
     90 H51         -9.1300    -2.1720    -3.5950 ho         1 TKD       0.402500
     91 H52        -10.7000     0.0590    -0.2350 ho         1 TKD       0.402500
@<TRIPOS>BOND
     1     1     2 1   
     2     1     6 1   
     3     1     7 1   
     4     1    11 1   
     5     2     3 1   
     6     2    40 1   
     7     2    41 1   
     8     3     4 1   
     9     3     8 1   
    10     3    42 1   
    11     4     5 1   
    12     4    43 1   
    13     4    44 1   
    14     5     6 1   
    15     5     9 1   
    16     5    45 1   
    17     6    46 1   
    18     6    47 1   
    19     7    10 1   
    20     7    48 1   
    21     7    49 1   
    22     8    10 1   
    23     8    50 1   
    24     8    51 1   
    25     9    10 1   
    26     9    52 1   
    27     9    53 1   
    28    10    54 1   
    29    11    12 1   
    30    11    55 1   
    31    11    56 1   
    32    12    13 1   
    33    12    19 1   
    34    12    57 1   
    35    13    14 3   
    36    14    15 1   
    37    15    16 1   
    38    15    58 1   
    39    15    59 1   
    40    16    17 1   
    41    16    18 1   
    42    16    60 1   
    43    17    20 1   
    44    17    23 1   
    45    17    61 1   
    46    18    62 1   
    47    18    63 1   
    48    18    64 1   
    49    19    65 1   
    50    20    21 1   
    51    20    24 1   
    52    20    28 1   
    53    21    22 1   
    54    21    27 1   
    55    21    66 1   
    56    22    23 1   
    57    22    67 1   
    58    22    68 1   
    59    23    69 1   
    60    23    70 1   
    61    24    25 1   
    62    24    71 1   
    63    24    72 1   
    64    25    26 1   
    65    25    73 1   
    66    25    74 1   
    67    26    27 1   
    68    26    75 1   
    69    26    76 1   
    70    27    29 2   
    71    28    77 1   
    72    28    78 1   
    73    28    79 1   
    74    29    30 1   
    75    29    80 1   
    76    30    31 2   
    77    30    81 1   
    78    31    32 1   
    79    31    36 1   
    80    32    33 1   
    81    32    82 1   
    82    32    83 1   
    83    33    34 1   
    84    33    39 1   
    85    33    84 1   
    86    34    35 1   
    87    34    37 2   
    88    35    36 1   
    89    35    38 1   
    90    35    85 1   
    91    36    86 1   
    92    36    87 1   
    93    37    88 1   
    94    37    89 1   
    95    38    90 1   
    96    39    91 1   
@<TRIPOS>SUBSTRUCTURE
     1 TKD         1 TEMP              0 ****  ****    0 ROOT
