@<TRIPOS>MOLECULE
TKE
   39    40     1     0     0
SMALL
No Charge or Current Charge


@<TRIPOS>ATOM
      1 C2          -2.9540     9.6000    11.3750 ca         1 TKE      -0.134500
      2 C3          -3.5450     9.9920    10.1590 ca         1 TKE      -0.061500
      3 C4          -3.9690    11.3180     9.9790 ca         1 TKE       0.184000
      4 C5          -3.7950    12.2570    11.0080 ca         1 TKE      -0.061500
      5 C10         -3.7870     3.5160    14.2030 ca         1 TKE      -0.126000
      6 C11         -4.0150     2.2710    14.8140 ca         1 TKE      -0.004500
      7 C6          -3.2030    11.8660    12.2230 ca         1 TKE      -0.134500
      8 C7          -3.3680     6.8300    14.6630 c3         1 TKE       0.099000
      9 N1          -3.1200     8.1230    14.0240 ns         1 TKE      -0.444900
     10 O1          -6.1350     0.6930    17.7550 o          1 TKE      -0.541500
     11 O           -4.1710    -0.3120    16.4580 o          1 TKE      -0.541500
     12 N2          -6.4050    -0.1930    15.5060 n8         1 TKE      -1.002100
     13 C12         -5.0660     2.1230    15.7420 ca         1 TKE      -0.270500
     14 C13         -5.8860     3.2270    16.0490 ca         1 TKE      -0.004500
     15 C14         -5.6520     4.4690    15.4340 ca         1 TKE      -0.126000
     16 C9          -4.6030     4.6210    14.5070 ca         1 TKE      -0.030300
     17 C8          -4.3490     5.9690    13.8480 c3         1 TKE      -0.057100
     18 C           -2.1930     9.0460    14.4070 cs         1 TKE       0.478400
     19 S           -1.2260     8.8840    15.7550 s          1 TKE      -0.652400
     20 C1          -2.7960    10.5340    12.4200 ca         1 TKE       0.040600
     21 I           -4.8750    11.9190     8.1060 i          1 TKE      -0.295000
     22 H1          -2.5990     8.5780    11.4820 ha         1 TKE       0.130000
     23 H2          -3.6660     9.2720     9.3530 ha         1 TKE       0.133500
     24 H3          -4.1170    13.2850    10.8610 ha         1 TKE       0.133500
     25 H4          -2.9710     3.6200    13.4900 ha         1 TKE       0.120500
     26 H5          -3.3730     1.4260    14.5640 ha         1 TKE       0.140000
     27 H6          -3.0730    12.6010    13.0160 ha         1 TKE       0.130000
     28 H7          -2.4140     6.2950    14.7680 h1         1 TKE       0.079700
     29 H8          -3.7750     7.0020    15.6680 h1         1 TKE       0.079700
     30 H9          -3.7010     8.3810    13.2360 hn         1 TKE       0.313500
     31 H10         -5.9280    -1.0780    15.3540 hn         1 TKE       0.473000
     32 H11         -7.1420    -0.4570    16.1560 hn         1 TKE       0.473000
     33 H12         -6.7040     3.1290    16.7610 ha         1 TKE       0.140000
     34 H13         -6.2900     5.3160    15.6790 ha         1 TKE       0.120500
     35 H14         -5.2940     6.5140    13.7290 hc         1 TKE       0.056700
     36 H15         -3.9470     5.8240    12.8370 hc         1 TKE       0.056700
     37 H16         -1.5910    10.9050    14.0320 hn         1 TKE       0.362500
     38 N           -2.1930    10.1830    13.6520 ns         1 TKE      -0.380100
     39 S1          -5.3600     0.5340    16.5260 sy         1 TKE       1.123600
@<TRIPOS>BOND
     1     1     2 ar  
     2     1    20 ar  
     3     1    22 1   
     4     2     3 ar  
     5     2    23 1   
     6     3     4 ar  
     7     3    21 1   
     8     4     7 ar  
     9     4    24 1   
    10     5     6 ar  
    11     5    16 ar  
    12     5    25 1   
    13     6    13 ar  
    14     6    26 1   
    15     7    20 ar  
    16     7    27 1   
    17     8     9 1   
    18     8    17 1   
    19     8    28 1   
    20     8    29 1   
    21     9    18 1   
    22     9    30 1   
    23    10    39 2   
    24    11    39 2   
    25    12    31 1   
    26    12    32 1   
    27    12    39 1   
    28    13    14 ar  
    29    13    39 1   
    30    14    15 ar  
    31    14    33 1   
    32    15    16 ar  
    33    15    34 1   
    34    16    17 1   
    35    17    35 1   
    36    17    36 1   
    37    18    19 2   
    38    18    38 1   
    39    20    38 1   
    40    37    38 1   
@<TRIPOS>SUBSTRUCTURE
     1 TKE         1 TEMP              0 ****  ****    0 ROOT
