@<TRIPOS>MOLECULE
TKE
   39    40     1     0     0
SMALL
abcg2


@<TRIPOS>ATOM
      1 C2          -2.9800     9.5980    11.2530 ca         1 TKE      -0.134500
      2 C3          -3.7720    10.1150    10.2380 ca         1 TKE      -0.061500
      3 C4          -4.2400    11.4170    10.3320 ca         1 TKE       0.184000
      4 C5          -3.9260    12.2070    11.4280 ca         1 TKE      -0.061500
      5 C10         -3.7020     3.5550    14.3930 ca         1 TKE      -0.126000
      6 C11         -3.9640     2.4110    15.1230 ca         1 TKE      -0.004500
      7 C6          -3.1550    11.6770    12.4500 ca         1 TKE      -0.134500
      8 C7          -3.4470     6.7630    14.5260 c3         1 TKE       0.099000
      9 N1          -3.1140     8.0010    13.8590 ns         1 TKE      -0.444900
     10 O1          -6.6740     1.1130    17.5770 o          1 TKE      -0.541500
     11 O           -4.2510     0.5010    17.4860 o          1 TKE      -0.541500
     12 N2          -5.6910    -0.2790    15.6180 n8         1 TKE      -1.002100
     13 C12         -5.1710     2.3080    15.8040 ca         1 TKE      -0.270500
     14 C13         -6.1130     3.3220    15.7540 ca         1 TKE      -0.004500
     15 C14         -5.8320     4.4640    15.0170 ca         1 TKE      -0.126000
     16 C9          -4.6270     4.5980    14.3370 ca         1 TKE      -0.030300
     17 C8          -4.2870     5.8690    13.6150 c3         1 TKE      -0.057100
     18 C           -2.0260     8.7290    14.1100 cs         1 TKE       0.478400
     19 S           -0.8650     8.2990    15.2510 s          1 TKE      -0.652400
     20 C1          -2.6800    10.3710    12.3720 ca         1 TKE       0.040600
     21 I           -5.4260    12.2070     8.7870 i          1 TKE      -0.295000
     22 H1          -2.5880     8.5940    11.1560 ha         1 TKE       0.130000
     23 H2          -3.9980     9.4970     9.3800 ha         1 TKE       0.133500
     24 H3          -4.2820    13.2250    11.5070 ha         1 TKE       0.133500
     25 H4          -2.7600     3.6410    13.8630 ha         1 TKE       0.120500
     26 H5          -3.2340     1.6140    15.1600 ha         1 TKE       0.140000
     27 H6          -2.9210    12.2860    13.3140 ha         1 TKE       0.130000
     28 H7          -2.5210     6.2580    14.7970 h1         1 TKE       0.079700
     29 H8          -3.9890     6.9640    15.4550 h1         1 TKE       0.079700
     30 H9          -3.8410     8.4030    13.2830 hn         1 TKE       0.313500
     31 H10         -5.5870    -1.2180    15.9930 hn         1 TKE       0.473000
     32 H11         -6.5840    -0.1870    15.1420 hn         1 TKE       0.473000
     33 H12         -7.0530     3.2380    16.2810 ha         1 TKE       0.140000
     34 H13         -6.5620     5.2630    14.9770 ha         1 TKE       0.120500
     35 H14         -5.2020     6.3870    13.3190 hc         1 TKE       0.056700
     36 H15         -3.7240     5.6490    12.7050 hc         1 TKE       0.056700
     37 H16         -1.1290    10.4770    13.7470 hn         1 TKE       0.362500
     38 N           -1.8630     9.8740    13.4050 ns         1 TKE      -0.380100
     39 S1          -5.4740     0.8710    16.7880 sy         1 TKE       1.123600
@<TRIPOS>BOND
     1     1     2 ar  
     2     1    20 ar  
     3     1    22 1   
     4     2     3 ar  
     5     2    23 1   
     6     3     4 ar  
     7     3    21 1   
     8     4     7 ar  
     9     4    24 1   
    10     5     6 ar  
    11     5    16 ar  
    12     5    25 1   
    13     6    13 ar  
    14     6    26 1   
    15     7    20 ar  
    16     7    27 1   
    17     8     9 1   
    18     8    17 1   
    19     8    28 1   
    20     8    29 1   
    21     9    18 1   
    22     9    30 1   
    23    10    39 2   
    24    11    39 2   
    25    12    31 1   
    26    12    32 1   
    27    12    39 1   
    28    13    14 ar  
    29    13    39 1   
    30    14    15 ar  
    31    14    33 1   
    32    15    16 ar  
    33    15    34 1   
    34    16    17 1   
    35    17    35 1   
    36    17    36 1   
    37    18    19 2   
    38    18    38 1   
    39    20    38 1   
    40    37    38 1   
@<TRIPOS>SUBSTRUCTURE
     1 TKE         1 TEMP              0 ****  ****    0 ROOT
