@<TRIPOS>MOLECULE
TKF
   61    66     1     0     0
SMALL
No Charge or Current Charge


@<TRIPOS>ATOM
      1 C11         13.0300     5.3640    -5.5110 cc         1 TKF      -0.182200
      2 C10         11.9720     5.3110    -4.6170 cd         1 TKF      -0.157400
      3 C12         13.0640     4.2020    -6.3670 ca         1 TKF      -0.086800
      4 C02         16.3630     0.4950    -9.8920 c          1 TKF       0.598100
      5 C05         13.9060     2.7430    -8.1160 ca         1 TKF      -0.121300
      6 C06         12.8450     1.8440    -7.8490 ca         1 TKF      -0.092000
      7 C07         11.9050     2.1280    -6.8390 ca         1 TKF      -0.071000
      8 C08         12.0380     3.3160    -6.1070 ca         1 TKF      -0.154000
      9 C13         14.0130     3.9350    -7.3660 ca         1 TKF      -0.066000
     10 C14         16.8640    -0.9020    -9.4770 c6         1 TKF      -0.162700
     11 C15         15.7450    -1.7110    -8.7520 c6         1 TKF       0.229800
     12 C17         14.2150    -1.4110    -6.7520 ca         1 TKF       0.453900
     13 C19         12.1910    -2.5050    -6.7060 ca         1 TKF       0.180900
     14 C21         12.4930    -0.8650    -5.1250 ca         1 TKF       0.010000
     15 C24         13.4930     1.8080    -3.0590 ca         1 TKF       0.038800
     16 C25         12.8470     1.7390    -1.8060 ca         1 TKF      -0.110500
     17 C26         12.9430     2.8000    -0.8890 ca         1 TKF      -0.047500
     18 C27         13.6950     3.9510    -1.2010 ca         1 TKF      -0.195300
     19 C28         13.7870     5.1240    -0.2190 c3         1 TKF       0.346300
     20 C32         14.3400     4.0230    -2.4530 ca         1 TKF      -0.047500
     21 C33         14.2430     2.9620    -3.3690 ca         1 TKF      -0.110500
     22 C34         14.3400     0.4170    -4.9150 cc         1 TKF      -0.122100
     23 C35         13.7560    -0.6570    -5.6550 ca         1 TKF      -0.282000
     24 C36         16.6860    -0.9920    -6.5080 c6         1 TKF       0.223800
     25 C37         17.9880    -1.4580    -7.1930 c6         1 TKF      -0.091400
     26 C38         18.1450    -0.7910    -8.5800 c6         1 TKF      -0.068400
     27 F29         12.8620     6.0690    -0.4980 f          1 TKF      -0.110333
     28 F30         13.5900     4.7430     1.0640 f          1 TKF      -0.110333
     29 F31         14.9960     5.7290    -0.2590 f          1 TKF      -0.110333
     30 N03         15.5760     1.1530    -8.9820 ns         1 TKF      -0.506900
     31 N16         15.4810    -1.2240    -7.3570 nh         1 TKF      -0.794300
     32 N18         13.4030    -2.3480    -7.2850 nb         1 TKF      -0.313000
     33 N20         11.6950    -1.8130    -5.6540 nb         1 TKF      -0.186000
     34 N22         12.2100    -0.0000    -4.0610 nc         1 TKF      -0.261400
     35 N23         13.3780     0.7560    -3.9810 na         1 TKF       0.219700
     36 O01         16.5650     0.9460   -11.0110 o          1 TKF      -0.609100
     37 S09         10.9710     3.8400    -4.7880 ss         1 TKF       0.073400
     38 H1          13.7430     6.1860    -5.5480 ha         1 TKF       0.202000
     39 H2          11.7120     6.0420    -3.8580 h4         1 TKF       0.219000
     40 H3          15.6770     3.2200    -9.2630 h1         1 TKF       0.059700
     41 H4          14.3950     2.3970   -10.1800 h1         1 TKF       0.059700
     42 H5          12.7530     0.9230    -8.4200 ha         1 TKF       0.125000
     43 H6          11.0960     1.4320    -6.6260 ha         1 TKF       0.140000
     44 H7          14.8190     4.6410    -7.5560 ha         1 TKF       0.116000
     45 H8          17.1370    -1.4200   -10.4050 hc         1 TKF       0.091700
     46 H9          14.8320    -1.6510    -9.3640 h1         1 TKF       0.077200
     47 H10         16.0300    -2.7740    -8.7240 h1         1 TKF       0.077200
     48 H11         11.5410    -3.2660    -7.1360 h5         1 TKF       0.047100
     49 H12         12.2620     0.8630    -1.5370 ha         1 TKF       0.144000
     50 H13         12.4230     2.7200     0.0650 ha         1 TKF       0.138500
     51 H14         14.9110     4.9080    -2.7280 ha         1 TKF       0.138500
     52 H15         14.7340     3.0610    -4.3330 ha         1 TKF       0.144000
     53 H16         15.2850     0.9390    -4.9690 h4         1 TKF       0.228000
     54 H17         16.7830     0.0810    -6.2920 h1         1 TKF       0.044700
     55 H18         16.5820    -1.5180    -5.5480 h1         1 TKF       0.044700
     56 H19         17.9850    -2.5520    -7.2940 hc         1 TKF       0.057700
     57 H20         18.8500    -1.2110    -6.5580 hc         1 TKF       0.057700
     58 H21         19.0010    -1.2410    -9.1020 hc         1 TKF       0.055700
     59 H22         18.4110     0.2660    -8.4370 hc         1 TKF       0.055700
     60 H23         15.3920     0.6500    -8.1170 hn         1 TKF       0.319500
     61 C04         14.9140     2.4320    -9.2120 c3         1 TKF       0.156300
@<TRIPOS>BOND
     1     1     2 2   
     2     1     3 1   
     3     1    38 1   
     4     2    37 1   
     5     2    39 1   
     6     3     8 ar  
     7     3     9 ar  
     8     4    10 1   
     9     4    30 1   
    10     4    36 2   
    11     5     6 ar  
    12     5     9 ar  
    13     5    61 1   
    14     6     7 ar  
    15     6    42 1   
    16     7     8 ar  
    17     7    43 1   
    18     8    37 1   
    19     9    44 1   
    20    10    11 1   
    21    10    26 1   
    22    10    45 1   
    23    11    31 1   
    24    11    46 1   
    25    11    47 1   
    26    12    23 ar  
    27    12    31 1   
    28    12    32 ar  
    29    13    32 ar  
    30    13    33 ar  
    31    13    48 1   
    32    14    23 ar  
    33    14    33 ar  
    34    14    34 2   
    35    15    16 ar  
    36    15    21 ar  
    37    15    35 1   
    38    16    17 ar  
    39    16    49 1   
    40    17    18 ar  
    41    17    50 1   
    42    18    19 1   
    43    18    20 ar  
    44    19    27 1   
    45    19    28 1   
    46    19    29 1   
    47    20    21 ar  
    48    20    51 1   
    49    21    52 1   
    50    22    23 2   
    51    22    35 1   
    52    22    53 1   
    53    24    25 1   
    54    24    31 1   
    55    24    54 1   
    56    24    55 1   
    57    25    26 1   
    58    25    56 1   
    59    25    57 1   
    60    26    58 1   
    61    26    59 1   
    62    30    60 1   
    63    30    61 1   
    64    34    35 1   
    65    40    61 1   
    66    41    61 1   
@<TRIPOS>SUBSTRUCTURE
     1 TKF         1 TEMP              0 ****  ****    0 ROOT
