@<TRIPOS>MOLECULE
TKF
   61    66     1     0     0
SMALL
abcg2


@<TRIPOS>ATOM
      1 C11         13.4900     5.0810    -5.6710 cc         1 TKF      -0.182200
      2 C10         12.5340     5.1400    -4.7120 cd         1 TKF      -0.157400
      3 C12         13.2910     3.9930    -6.5870 ca         1 TKF      -0.086800
      4 C02         16.0580     0.1510   -10.0260 c          1 TKF       0.598100
      5 C05         13.6810     2.5270    -8.4680 ca         1 TKF      -0.121300
      6 C06         12.5290     1.7940    -8.1240 ca         1 TKF      -0.092000
      7 C07         11.7560     2.1380    -7.0310 ca         1 TKF      -0.071000
      8 C08         12.1400     3.2380    -6.2650 ca         1 TKF      -0.154000
      9 C13         14.0580     3.6160    -7.7000 ca         1 TKF      -0.066000
     10 C14         16.8250    -0.9910    -9.3630 c6         1 TKF      -0.162700
     11 C15         15.9350    -1.8810    -8.4800 c6         1 TKF       0.229800
     12 C17         14.3510    -1.2420    -6.7230 ca         1 TKF       0.453900
     13 C19         12.1590    -1.9800    -6.8810 ca         1 TKF       0.180900
     14 C21         12.5640    -0.5600    -5.2110 ca         1 TKF       0.010000
     15 C24         13.5250     1.8570    -2.9100 ca         1 TKF       0.038800
     16 C25         12.6020     1.8320    -1.8670 ca         1 TKF      -0.110500
     17 C26         12.6520     2.8100    -0.8900 ca         1 TKF      -0.047500
     18 C27         13.6240     3.8080    -0.9500 ca         1 TKF      -0.195300
     19 C28         13.6470     4.8590     0.1170 c3         1 TKF       0.346300
     20 C32         14.5430     3.8270    -1.9920 ca         1 TKF      -0.047500
     21 C33         14.4910     2.8550    -2.9790 ca         1 TKF      -0.110500
     22 C34         14.4730     0.4790    -4.7240 cc         1 TKF      -0.122100
     23 C35         13.9410    -0.4670    -5.5920 ca         1 TKF      -0.282000
     24 C36         16.7250    -0.6370    -6.4500 c6         1 TKF       0.223800
     25 C37         18.0540    -0.9450    -7.1240 c6         1 TKF      -0.091400
     26 C38         18.0590    -0.4580    -8.5720 c6         1 TKF      -0.068400
     27 F29         12.5080     5.5960     0.1280 f          1 TKF      -0.110333
     28 F30         13.7560     4.3240     1.3580 f          1 TKF      -0.110333
     29 F31         14.6680     5.7270    -0.0210 f          1 TKF      -0.110333
     30 N03         15.3220     0.9180    -9.2050 ns         1 TKF      -0.506900
     31 N16         15.6110    -1.2340    -7.2060 nh         1 TKF      -0.794300
     32 N18         13.4230    -1.9770    -7.3470 nb         1 TKF      -0.313000
     33 N20         11.6530    -1.3370    -5.8500 nb         1 TKF      -0.186000
     34 N22         12.2810     0.2450    -4.1880 nc         1 TKF      -0.261400
     35 N23         13.4610     0.8710    -3.9220 na         1 TKF       0.219700
     36 O01         16.1340     0.3660   -11.2380 o          1 TKF      -0.609100
     37 S09         11.3440     3.8830    -4.8570 ss         1 TKF       0.073400
     38 H1          14.3170     5.7750    -5.7350 ha         1 TKF       0.202000
     39 H2          12.4550     5.8460    -3.9000 h4         1 TKF       0.219000
     40 H3          15.1950     2.8770    -9.9520 h1         1 TKF       0.059700
     41 H4          13.9130     1.7850   -10.4760 h1         1 TKF       0.059700
     42 H5          12.2520     0.9340    -8.7220 ha         1 TKF       0.125000
     43 H6          10.8780     1.5600    -6.7750 ha         1 TKF       0.140000
     44 H7          14.9470     4.1800    -7.9560 ha         1 TKF       0.116000
     45 H8          17.1650    -1.6170   -10.1860 hc         1 TKF       0.091700
     46 H9          15.0020    -2.1150    -8.9810 h1         1 TKF       0.077200
     47 H10         16.4520    -2.8250    -8.2930 h1         1 TKF       0.077200
     48 H11         11.4720    -2.6070    -7.4420 h5         1 TKF       0.047100
     49 H12         11.8550     1.0530    -1.8310 ha         1 TKF       0.144000
     50 H13         11.9360     2.7930    -0.0800 ha         1 TKF       0.138500
     51 H14         15.2860     4.6090    -2.0540 ha         1 TKF       0.138500
     52 H15         15.1760     2.9050    -3.8120 ha         1 TKF       0.144000
     53 H16         15.4610     0.8780    -4.6030 h4         1 TKF       0.228000
     54 H17         16.5990     0.4500    -6.4020 h1         1 TKF       0.044700
     55 H18         16.7100    -1.0220    -5.4290 h1         1 TKF       0.044700
     56 H19         18.2560    -2.0170    -7.0760 hc         1 TKF       0.057700
     57 H20         18.8430    -0.4470    -6.5580 hc         1 TKF       0.057700
     58 H21         18.9760    -0.7700    -9.0700 hc         1 TKF       0.055700
     59 H22         18.0530     0.6350    -8.5730 hc         1 TKF       0.055700
     60 H23         15.3020     0.6900    -8.2260 hn         1 TKF       0.319500
     61 C04         14.5330     2.0730    -9.6240 c3         1 TKF       0.156300
@<TRIPOS>BOND
     1     1     2 2   
     2     1     3 1   
     3     1    38 1   
     4     2    37 1   
     5     2    39 1   
     6     3     8 ar  
     7     3     9 ar  
     8     4    10 1   
     9     4    30 1   
    10     4    36 2   
    11     5     6 ar  
    12     5     9 ar  
    13     5    61 1   
    14     6     7 ar  
    15     6    42 1   
    16     7     8 ar  
    17     7    43 1   
    18     8    37 1   
    19     9    44 1   
    20    10    11 1   
    21    10    26 1   
    22    10    45 1   
    23    11    31 1   
    24    11    46 1   
    25    11    47 1   
    26    12    23 ar  
    27    12    31 1   
    28    12    32 ar  
    29    13    32 ar  
    30    13    33 ar  
    31    13    48 1   
    32    14    23 ar  
    33    14    33 ar  
    34    14    34 2   
    35    15    16 ar  
    36    15    21 ar  
    37    15    35 1   
    38    16    17 ar  
    39    16    49 1   
    40    17    18 ar  
    41    17    50 1   
    42    18    19 1   
    43    18    20 ar  
    44    19    27 1   
    45    19    28 1   
    46    19    29 1   
    47    20    21 ar  
    48    20    51 1   
    49    21    52 1   
    50    22    23 2   
    51    22    35 1   
    52    22    53 1   
    53    24    25 1   
    54    24    31 1   
    55    24    54 1   
    56    24    55 1   
    57    25    26 1   
    58    25    56 1   
    59    25    57 1   
    60    26    58 1   
    61    26    59 1   
    62    30    60 1   
    63    30    61 1   
    64    34    35 1   
    65    40    61 1   
    66    41    61 1   
@<TRIPOS>SUBSTRUCTURE
     1 TKF         1 TEMP              0 ****  ****    0 ROOT
