@<TRIPOS>MOLECULE
TKH
   31    33     1     0     0
SMALL
bcc


@<TRIPOS>ATOM
      1 C02        -21.2150    21.3700     4.5810 c          1 TKH       0.581500
      2 C03        -21.8230    21.5750     3.2500 ca         1 TKH      -0.171600
      3 C04        -23.0760    22.1890     3.2460 ca         1 TKH      -0.080000
      4 C05        -23.7530    22.4670     2.0760 ca         1 TKH      -0.128000
      5 C06        -21.2650    21.2150     2.0190 ca         1 TKH       0.041100
      6 C08        -21.9400    21.4660     0.8370 ca         1 TKH      -0.127000
      7 C09        -23.1720    22.1080     0.8690 ca         1 TKH       0.031800
      8 C11        -23.3290    22.9120    -1.4840 cc         1 TKH       0.473000
      9 C12        -21.9620    23.4230    -1.6130 ca         1 TKH      -0.190500
     10 C13        -21.4310    24.3460    -0.7230 ca         1 TKH       0.182900
     11 C15        -20.1510    24.8480    -0.8340 ca         1 TKH      -0.221000
     12 C16        -19.3890    24.4100    -1.9000 ca         1 TKH       0.178900
     13 C18        -19.8680    23.5100    -2.8330 ca         1 TKH      -0.193000
     14 C19        -21.1550    23.0250    -2.6780 ca         1 TKH      -0.041000
     15 C21        -25.3560    22.3850    -1.9050 cd         1 TKH       0.304200
     16 C22        -25.1520    22.0400    -0.6050 cc         1 TKH      -0.241600
     17 F14        -22.1970    24.7830     0.2820 f          1 TKH      -0.131900
     18 F17        -18.1450    24.8820    -2.0270 f          1 TKH      -0.130900
     19 N10        -23.8450    22.3700    -0.3390 na         1 TKH      -0.125000
     20 N20        -24.2220    22.9280    -2.4370 nd         1 TKH      -0.651000
     21 BR1        -19.6020    20.3510     1.8690 br         1 TKH      -0.045100
     22 H1         -21.8650    21.7230     5.4020 h4         1 TKH      -0.008800
     23 H4         -23.5210    22.4710     4.1930 ha         1 TKH       0.142000
     24 H5         -24.7110    22.9700     2.1000 ha         1 TKH       0.155000
     25 H6         -21.5220    21.1490    -0.1100 ha         1 TKH       0.166000
     26 H7         -19.7700    25.5680    -0.1220 ha         1 TKH       0.172000
     27 H8         -19.2480    23.1880    -3.6590 ha         1 TKH       0.160000
     28 H9         -21.5440    22.3110    -3.3920 ha         1 TKH       0.156000
     29 H10        -26.2600    22.2720    -2.4840 h4         1 TKH       0.044100
     30 H11        -25.7850    21.5740     0.1310 h4         1 TKH       0.181000
     31 O1         -20.1380    20.8830     4.8130 o          1 TKH      -0.482100
@<TRIPOS>BOND
     1     1     2 1   
     2     1    22 1   
     3     1    31 2   
     4     2     3 ar  
     5     2     5 ar  
     6     3     4 ar  
     7     3    23 1   
     8     4     7 ar  
     9     4    24 1   
    10     5     6 ar  
    11     5    21 1   
    12     6     7 ar  
    13     6    25 1   
    14     7    19 1   
    15     8     9 1   
    16     8    19 1   
    17     8    20 2   
    18     9    10 ar  
    19     9    14 ar  
    20    10    11 ar  
    21    10    17 1   
    22    11    12 ar  
    23    11    26 1   
    24    12    13 ar  
    25    12    18 1   
    26    13    14 ar  
    27    13    27 1   
    28    14    28 1   
    29    15    16 2   
    30    15    20 1   
    31    15    29 1   
    32    16    19 1   
    33    16    30 1   
@<TRIPOS>SUBSTRUCTURE
     1 TKH         1 TEMP              0 ****  ****    0 ROOT
