@<TRIPOS>MOLECULE
TKH
   31    33     1     0     0
SMALL
No Charge or Current Charge


@<TRIPOS>ATOM
      1 C02        -21.2430    21.3100     4.6650 c          1 TKH       0.581500
      2 C03        -21.8790    21.5670     3.3160 ca         1 TKH      -0.171600
      3 C04        -23.1280    22.2270     3.3100 ca         1 TKH      -0.062000
      4 C05        -23.7900    22.5110     2.1050 ca         1 TKH      -0.110000
      5 C06        -21.3080    21.1870     2.0710 ca         1 TKH       0.041100
      6 C08        -21.9820    21.4740     0.8710 ca         1 TKH      -0.109000
      7 C09        -23.2180    22.1460     0.8760 ca         1 TKH       0.031800
      8 C11        -23.2980    22.9210    -1.4740 cc         1 TKH       0.473000
      9 C12        -21.9340    23.4360    -1.6210 ca         1 TKH      -0.190500
     10 C13        -21.3800    24.3460    -0.6930 ca         1 TKH       0.218000
     11 C15        -20.0820    24.8440    -0.8670 ca         1 TKH      -0.203000
     12 C16        -19.3310    24.4570    -1.9830 ca         1 TKH       0.214000
     13 C18        -19.8790    23.5880    -2.9360 ca         1 TKH      -0.175000
     14 C19        -21.1810    23.0890    -2.7640 ca         1 TKH      -0.023000
     15 C21        -25.3180    22.2700    -1.9260 cd         1 TKH       0.238900
     16 C22        -25.1630    22.0230    -0.5840 cc         1 TKH      -0.209000
     17 F14        -22.1030    24.7890     0.3580 f          1 TKH      -0.167000
     18 F17        -18.0810    24.9390    -2.1520 f          1 TKH      -0.166000
     19 N10        -23.8830    22.4400    -0.3170 na         1 TKH      -0.074300
     20 N20        -24.1620    22.8070    -2.4750 nd         1 TKH      -0.651000
     21 Br1        -19.6200    20.2800     1.9020 br         1 TKH      -0.045100
     22 H1         -21.8330    21.6710     5.5360 h4         1 TKH      -0.008800
     23 H4         -23.5930    22.5280     4.2480 ha         1 TKH       0.124000
     24 H5         -24.7470    23.0290     2.1290 ha         1 TKH       0.137000
     25 H6         -21.5350    21.1640    -0.0710 ha         1 TKH       0.148000
     26 H7         -19.6640    25.5390    -0.1450 ha         1 TKH       0.154000
     27 H8         -19.2950    23.3050    -3.8080 ha         1 TKH       0.142000
     28 H9         -21.5990    22.4160    -3.5120 ha         1 TKH       0.138000
     29 H10        -26.1920    22.0720    -2.5350 h4         1 TKH       0.044100
     30 H11        -25.8270    21.5820     0.1480 h4         1 TKH       0.163000
     31 O1         -20.1660    20.7550     4.8510 o          1 TKH      -0.482100
@<TRIPOS>BOND
     1     1     2 1   
     2     1    22 1   
     3     1    31 2   
     4     2     3 ar  
     5     2     5 ar  
     6     3     4 ar  
     7     3    23 1   
     8     4     7 ar  
     9     4    24 1   
    10     5     6 ar  
    11     5    21 1   
    12     6     7 ar  
    13     6    25 1   
    14     7    19 1   
    15     8     9 1   
    16     8    19 1   
    17     8    20 2   
    18     9    10 ar  
    19     9    14 ar  
    20    10    11 ar  
    21    10    17 1   
    22    11    12 ar  
    23    11    26 1   
    24    12    13 ar  
    25    12    18 1   
    26    13    14 ar  
    27    13    27 1   
    28    14    28 1   
    29    15    16 2   
    30    15    20 1   
    31    15    29 1   
    32    16    19 1   
    33    16    30 1   
@<TRIPOS>SUBSTRUCTURE
     1 TKH         1 TEMP              0 ****  ****    0 ROOT
