@<TRIPOS>MOLECULE
TKI
   31    31     1     0     0
SMALL
abcg2


@<TRIPOS>ATOM
      1 O18         11.4880    13.7900    -5.4130 o          1 TKI      -0.724000
      2 O17         12.4130    15.8320    -5.5760 o          1 TKI      -0.724000
      3 C1          13.8820    15.8430    -8.4550 ca         1 TKI       0.413900
      4 C11         16.1190    18.2870   -11.4210 c3         1 TKI      -0.083100
      5 C15         13.2680    14.0400    -6.9490 c3         1 TKI       0.069800
      6 C16         12.3050    14.6230    -5.8790 c          1 TKI       0.706000
      7 C3          14.3620    17.6410    -9.7550 ca         1 TKI       0.180800
      8 C5          12.3860    16.5630   -10.0020 ca         1 TKI       0.180800
      9 C7          11.0800    16.3990   -10.7240 c3         1 TKI      -0.116200
     10 C8          11.2560    15.5640   -12.0010 c3         1 TKI      -0.083100
     11 N13         14.2370    14.9770    -7.4910 nh         1 TKI      -0.708300
     12 N2          14.7550    16.8210    -8.7900 nb         1 TKI      -0.274500
     13 N4          13.1870    17.5640   -10.3980 nb         1 TKI      -0.303000
     14 N6          12.6750    15.6910    -9.0480 nb         1 TKI      -0.274500
     15 H2          15.9880    18.9450    -9.3630 hc         1 TKI       0.059200
     16 H3          14.7380    19.6160   -10.4230 hc         1 TKI       0.059200
     17 H4          16.8010    19.0820   -11.7250 hc         1 TKI       0.031033
     18 H5          16.7090    17.3950   -11.2030 hc         1 TKI       0.031033
     19 H6          15.4570    18.0650   -12.2590 hc         1 TKI       0.031033
     20 H7          15.6810    14.2710    -6.1830 h1         1 TKI       0.037367
     21 H8          16.3020    15.3670    -7.4310 h1         1 TKI       0.037367
     22 H9          15.3960    16.0160    -6.0560 h1         1 TKI       0.037367
     23 H10         12.6620    13.6370    -7.7560 h1         1 TKI       0.046700
     24 H11         13.8150    13.2120    -6.4980 h1         1 TKI       0.046700
     25 H12         10.6960    17.3870   -10.9820 hc         1 TKI       0.059200
     26 H13         10.3680    15.9120   -10.0580 hc         1 TKI       0.059200
     27 H14         10.3000    15.4540   -12.5160 hc         1 TKI       0.031033
     28 H15         11.9600    16.0430   -12.6830 hc         1 TKI       0.031033
     29 H16         11.6330    14.5680   -11.7630 hc         1 TKI       0.031033
     30 C10         15.3120    18.7190   -10.1880 c3         1 TKI      -0.116200
     31 C14         15.4760    15.1760    -6.7510 c3         1 TKI       0.226100
@<TRIPOS>BOND
     1     1     6 1   
     2     2     6 1   
     3     3    11 1   
     4     3    12 ar  
     5     3    14 ar  
     6     4    17 1   
     7     4    18 1   
     8     4    19 1   
     9     4    30 1   
    10     5     6 1   
    11     5    11 1   
    12     5    23 1   
    13     5    24 1   
    14     7    12 ar  
    15     7    13 ar  
    16     7    30 1   
    17     8     9 1   
    18     8    13 ar  
    19     8    14 ar  
    20     9    10 1   
    21     9    25 1   
    22     9    26 1   
    23    10    27 1   
    24    10    28 1   
    25    10    29 1   
    26    11    31 1   
    27    15    30 1   
    28    16    30 1   
    29    20    31 1   
    30    21    31 1   
    31    22    31 1   
@<TRIPOS>SUBSTRUCTURE
     1 TKI         1 TEMP              0 ****  ****    0 ROOT
