@<TRIPOS>MOLECULE
TKI
   31    31     1     0     0
SMALL
No Charge or Current Charge


@<TRIPOS>ATOM
      1 O18         11.0410    14.3650    -6.2930 o          1 TKI      -0.724000
      2 O17         12.5160    14.8400    -4.7990 o          1 TKI      -0.724000
      3 C1          13.8890    15.9280    -8.4740 ca         1 TKI       0.413900
      4 C11         16.2610    18.3200   -11.4120 c3         1 TKI      -0.083100
      5 C15         13.3430    13.9890    -6.8950 c3         1 TKI       0.069800
      6 C16         12.2040    14.4430    -5.9160 c          1 TKI       0.706000
      7 C3          14.3550    17.6960    -9.8410 ca         1 TKI       0.180800
      8 C5          12.3690    16.6000   -10.0380 ca         1 TKI       0.180800
      9 C7          11.0210    16.4280   -10.7230 c3         1 TKI      -0.116200
     10 C8          11.0910    15.4790   -11.9360 c3         1 TKI      -0.083100
     11 N13         14.2740    15.0500    -7.4250 nh         1 TKI      -0.708300
     12 N2          14.7630    16.8910    -8.8390 nb         1 TKI      -0.274500
     13 N4          13.1690    17.5950   -10.4760 nb         1 TKI      -0.303000
     14 N6          12.6800    15.7420    -9.0460 nb         1 TKI      -0.274500
     15 H2          15.9020    19.1520    -9.4490 hc         1 TKI       0.059200
     16 H3          14.7390    19.6590   -10.6580 hc         1 TKI       0.059200
     17 H4          16.9300    19.1350   -11.7150 hc         1 TKI       0.031033
     18 H5          16.8750    17.4810   -11.0660 hc         1 TKI       0.031033
     19 H6          15.6950    17.9950   -12.2930 hc         1 TKI       0.031033
     20 H7          15.6720    14.4970    -5.9000 h1         1 TKI       0.037367
     21 H8          16.4060    15.1060    -7.3980 h1         1 TKI       0.037367
     22 H9          15.6130    16.2330    -6.2600 h1         1 TKI       0.037367
     23 H10         12.8690    13.4620    -7.7340 h1         1 TKI       0.046700
     24 H11         13.9220    13.2230    -6.3630 h1         1 TKI       0.046700
     25 H12         10.6380    17.4010   -11.0550 hc         1 TKI       0.059200
     26 H13         10.2820    16.0390   -10.0100 hc         1 TKI       0.059200
     27 H14         10.1040    15.3790   -12.4020 hc         1 TKI       0.031033
     28 H15         11.7900    15.8640   -12.6880 hc         1 TKI       0.031033
     29 H16         11.4280    14.4820   -11.6280 hc         1 TKI       0.031033
     30 C10         15.3060    18.7930   -10.2970 c3         1 TKI      -0.116200
     31 C14         15.5610    15.2320    -6.7080 c3         1 TKI       0.226100
@<TRIPOS>BOND
     1     1     6 1   
     2     2     6 1   
     3     3    11 1   
     4     3    12 ar  
     5     3    14 ar  
     6     4    17 1   
     7     4    18 1   
     8     4    19 1   
     9     4    30 1   
    10     5     6 1   
    11     5    11 1   
    12     5    23 1   
    13     5    24 1   
    14     7    12 ar  
    15     7    13 ar  
    16     7    30 1   
    17     8     9 1   
    18     8    13 ar  
    19     8    14 ar  
    20     9    10 1   
    21     9    25 1   
    22     9    26 1   
    23    10    27 1   
    24    10    28 1   
    25    10    29 1   
    26    11    31 1   
    27    15    30 1   
    28    16    30 1   
    29    20    31 1   
    30    21    31 1   
    31    22    31 1   
@<TRIPOS>SUBSTRUCTURE
     1 TKI         1 TEMP              0 ****  ****    0 ROOT
