@<TRIPOS>MOLECULE
TKJ
   69    73     1     0     0
SMALL
No Charge or Current Charge


@<TRIPOS>ATOM
      1 C1          -0.4740    24.8760    14.4350 c6         1 TKJ      -0.147700
      2 C2           0.2860    23.6360    14.9850 c6         1 TKJ      -0.049900
      3 C3           1.4940    23.2470    14.0900 c6         1 TKJ      -0.300900
      4 C5           1.6170    25.9110    13.3430 c6         1 TKJ      -0.300900
      5 C6           0.4040    26.1500    14.2810 c6         1 TKJ      -0.049900
      6 S4           2.7140    24.5810    13.9140 s6         1 TKJ       1.079000
      7 C7          -1.7960    25.1280    15.2120 c          1 TKJ       0.625100
      8 O8          -1.7880    25.8210    16.2220 o          1 TKJ      -0.597100
      9 C9          -8.3480    26.2030    14.2020 ca         1 TKJ       0.017000
     10 C10         -9.2470    27.0190    14.9080 ca         1 TKJ      -0.176500
     11 C11         -8.7940    28.2010    15.5100 ca         1 TKJ       0.227000
     12 C12         -7.4470    28.5770    15.4140 ca         1 TKJ      -0.176500
     13 C13         -6.5390    27.7660    14.7110 ca         1 TKJ       0.017000
     14 C14         -6.9900    26.5770    14.1010 ca         1 TKJ      -0.277500
     15 S16         -5.8320    25.5010    13.2320 sy         1 TKJ       1.012500
     16 C17         -5.3280    24.1780    14.4810 c5         1 TKJ      -0.167700
     17 C18         -6.5610    23.6210    15.2360 ca         1 TKJ      -0.134300
     18 C19         -6.9770    24.1600    16.4780 ca         1 TKJ      -0.057500
     19 C20         -8.1470    23.7050    17.1070 ca         1 TKJ      -0.165500
     20 C21         -8.9440    22.7250    16.5050 ca         1 TKJ       0.154100
     21 C22         -8.5460    22.1770    15.2710 ca         1 TKJ      -0.165500
     22 C23         -7.3710    22.6240    14.6440 ca         1 TKJ      -0.057500
     23 O24        -10.1060    22.3510    17.1480 os         1 TKJ      -0.340100
     24 C25        -11.2140    21.7480    16.4490 c3         1 TKJ       0.208900
     25 C26        -11.7500    22.7310    15.4070 ca         1 TKJ      -0.132300
     26 C27        -12.1580    24.0240    15.7960 ca         1 TKJ      -0.095000
     27 C28        -12.6390    24.9350    14.8400 ca         1 TKJ      -0.111500
     28 C29        -12.7160    24.5610    13.4880 ca         1 TKJ      -0.097000
     29 C30        -12.3150    23.2740    13.0940 ca         1 TKJ      -0.111500
     30 C31        -11.8360    22.3610    14.0500 ca         1 TKJ      -0.095000
     31 O32         -6.5870    24.8220    12.1690 o          1 TKJ      -0.516500
     32 O33         -4.6480    26.3030    12.8970 o          1 TKJ      -0.516500
     33 C34         -4.2770    24.7440    15.4870 c5         1 TKJ       0.122000
     34 N35         -2.9940    24.5140    14.7870 n          1 TKJ      -0.409800
     35 C36         -3.1120    23.5990    13.6280 c5         1 TKJ       0.098000
     36 C37         -4.5320    23.0050    13.8160 c5         1 TKJ      -0.079400
     37 O38          3.6430    24.2340    12.8310 o          1 TKJ      -0.515500
     38 O39          3.2320    24.9300    15.2430 o          1 TKJ      -0.515500
     39 H1          -0.7730    24.5810    13.4220 hc         1 TKJ       0.063700
     40 H2           0.6270    23.8370    16.0110 hc         1 TKJ       0.075200
     41 H3          -0.3990    22.7790    15.0590 hc         1 TKJ       0.075200
     42 H4           1.1690    23.0010    13.0720 h1         1 TKJ       0.103200
     43 H5           2.0410    22.3930    14.5090 h1         1 TKJ       0.103200
     44 H6           1.2890    25.6190    12.3380 h1         1 TKJ       0.103200
     45 H7           2.2460    26.8080    13.2680 h1         1 TKJ       0.103200
     46 H8           0.7530    26.4860    15.2690 hc         1 TKJ       0.075200
     47 H9          -0.2080    26.9710    13.8800 hc         1 TKJ       0.075200
     48 H10         -8.7060    25.2800    13.7480 ha         1 TKJ       0.146000
     49 H11        -10.2910    26.7330    14.9930 ha         1 TKJ       0.140000
     50 H12         -7.1060    29.4940    15.8870 ha         1 TKJ       0.140000
     51 H13         -5.4930    28.0640    14.6480 ha         1 TKJ       0.146000
     52 H14         -6.4180    24.9600    16.9590 ha         1 TKJ       0.123000
     53 H15         -8.4540    24.1390    18.0550 ha         1 TKJ       0.130000
     54 H16         -9.1370    21.4110    14.7800 ha         1 TKJ       0.130000
     55 H17         -7.1110    22.2050    13.6760 ha         1 TKJ       0.123000
     56 H18        -12.0180    21.5130    17.1580 h1         1 TKJ       0.063700
     57 H19        -10.9150    20.8040    15.9760 h1         1 TKJ       0.063700
     58 H20        -12.0960    24.3240    16.8400 ha         1 TKJ       0.116500
     59 H21        -12.9510    25.9310    15.1480 ha         1 TKJ       0.115500
     60 H22        -13.0870    25.2670    12.7480 ha         1 TKJ       0.117000
     61 H23        -12.3760    22.9830    12.0480 ha         1 TKJ       0.115500
     62 H24        -11.5290    21.3670    13.7310 ha         1 TKJ       0.116500
     63 H25         -4.4430    25.8040    15.7200 h1         1 TKJ       0.069700
     64 H26         -4.2760    24.1830    16.4320 h1         1 TKJ       0.069700
     65 H27         -2.3460    22.8120    13.6350 h1         1 TKJ       0.057700
     66 H28         -3.0270    24.1540    12.6840 h1         1 TKJ       0.057700
     67 H29         -4.9580    22.6580    12.8680 hc         1 TKJ       0.077200
     68 H30         -4.4850    22.1360    14.4830 hc         1 TKJ       0.077200
     69 F15         -9.6620    28.9820    16.1900 f          1 TKJ      -0.168000
@<TRIPOS>BOND
     1     1     2 1   
     2     1     5 1   
     3     1     7 1   
     4     1    39 1   
     5     2     3 1   
     6     2    40 1   
     7     2    41 1   
     8     3     6 1   
     9     3    42 1   
    10     3    43 1   
    11     4     5 1   
    12     4     6 1   
    13     4    44 1   
    14     4    45 1   
    15     5    46 1   
    16     5    47 1   
    17     6    37 2   
    18     6    38 2   
    19     7     8 2   
    20     7    34 1   
    21     9    10 ar  
    22     9    14 ar  
    23     9    48 1   
    24    10    11 ar  
    25    10    49 1   
    26    11    12 ar  
    27    11    69 1   
    28    12    13 ar  
    29    12    50 1   
    30    13    14 ar  
    31    13    51 1   
    32    14    15 1   
    33    15    16 1   
    34    15    31 2   
    35    15    32 2   
    36    16    17 1   
    37    16    33 1   
    38    16    36 1   
    39    17    18 ar  
    40    17    22 ar  
    41    18    19 ar  
    42    18    52 1   
    43    19    20 ar  
    44    19    53 1   
    45    20    21 ar  
    46    20    23 1   
    47    21    22 ar  
    48    21    54 1   
    49    22    55 1   
    50    23    24 1   
    51    24    25 1   
    52    24    56 1   
    53    24    57 1   
    54    25    26 ar  
    55    25    30 ar  
    56    26    27 ar  
    57    26    58 1   
    58    27    28 ar  
    59    27    59 1   
    60    28    29 ar  
    61    28    60 1   
    62    29    30 ar  
    63    29    61 1   
    64    30    62 1   
    65    33    34 1   
    66    33    63 1   
    67    33    64 1   
    68    34    35 1   
    69    35    36 1   
    70    35    65 1   
    71    35    66 1   
    72    36    67 1   
    73    36    68 1   
@<TRIPOS>SUBSTRUCTURE
     1 TKJ         1 TEMP              0 ****  ****    0 ROOT
