@<TRIPOS>MOLECULE
TKJ
   69    73     1     0     0
SMALL
abcg2


@<TRIPOS>ATOM
      1 C1          -0.6460    24.9200    14.2710 c6         1 TKJ      -0.147700
      2 C2           0.1540    23.7790    14.9190 c6         1 TKJ      -0.049900
      3 C3           1.3800    23.3860    14.1050 c6         1 TKJ      -0.300900
      4 C5           1.3930    26.0090    13.2410 c6         1 TKJ      -0.300900
      5 C6           0.1760    26.2030    14.1380 c6         1 TKJ      -0.049900
      6 S4           2.4910    24.7720    13.9140 s6         1 TKJ       1.079000
      7 C7          -1.8890    25.1640    15.1100 c          1 TKJ       0.625100
      8 O8          -1.8870    25.9660    16.0340 o          1 TKJ      -0.597100
      9 C9          -8.2100    26.1590    14.4060 ca         1 TKJ       0.017000
     10 C10         -9.0360    27.0010    15.1260 ca         1 TKJ      -0.176500
     11 C11         -8.4780    28.0990    15.7580 ca         1 TKJ       0.227000
     12 C12         -7.1280    28.3900    15.6900 ca         1 TKJ      -0.176500
     13 C13         -6.3050    27.5450    14.9650 ca         1 TKJ       0.017000
     14 C14         -6.8480    26.4330    14.3360 ca         1 TKJ      -0.277500
     15 S16         -5.7850    25.3480    13.4260 sy         1 TKJ       1.012500
     16 C17         -5.2850    24.0340    14.6350 c5         1 TKJ      -0.167700
     17 C18         -6.5370    23.5700    15.3180 ca         1 TKJ      -0.134300
     18 C19         -6.9250    24.1020    16.5470 ca         1 TKJ      -0.057500
     19 C20         -8.1300    23.7570    17.1270 ca         1 TKJ      -0.165500
     20 C21         -8.9920    22.8730    16.4800 ca         1 TKJ       0.154100
     21 C22         -8.6080    22.3170    15.2630 ca         1 TKJ      -0.165500
     22 C23         -7.3930    22.6680    14.6970 ca         1 TKJ      -0.057500
     23 O24        -10.1540    22.6100    17.1110 os         1 TKJ      -0.340100
     24 C25        -11.2040    21.9880    16.3910 c3         1 TKJ       0.208900
     25 C26        -11.7160    22.8330    15.2540 ca         1 TKJ      -0.132300
     26 C27        -11.8520    24.2120    15.3970 ca         1 TKJ      -0.095000
     27 C28        -12.3480    24.9800    14.3540 ca         1 TKJ      -0.111500
     28 C29        -12.7200    24.3800    13.1570 ca         1 TKJ      -0.097000
     29 C30        -12.5920    23.0070    13.0100 ca         1 TKJ      -0.111500
     30 C31        -12.0870    22.2400    14.0530 ca         1 TKJ      -0.095000
     31 O32         -6.5820    24.7030    12.3840 o          1 TKJ      -0.516500
     32 O33         -4.5990    26.1090    13.0310 o          1 TKJ      -0.516500
     33 C34         -4.2030    24.5880    15.5610 c5         1 TKJ       0.122000
     34 N35         -2.9700    24.4210    14.8190 n          1 TKJ      -0.409800
     35 C36         -3.1060    23.4900    13.7040 c5         1 TKJ       0.098000
     36 C37         -4.5260    22.9550    13.8500 c5         1 TKJ      -0.079400
     37 O38          3.5260    24.4390    12.9350 o          1 TKJ      -0.515500
     38 O39          2.9160    25.2080    15.2470 o          1 TKJ      -0.515500
     39 H1          -0.9310    24.6060    13.2620 hc         1 TKJ       0.063700
     40 H2           0.4530    24.0620    15.9300 hc         1 TKJ       0.075200
     41 H3          -0.4680    22.8870    15.0170 hc         1 TKJ       0.075200
     42 H4           1.1120    23.0500    13.1010 h1         1 TKJ       0.103200
     43 H5           1.9550    22.5970    14.5920 h1         1 TKJ       0.103200
     44 H6           1.1130    25.6750    12.2400 h1         1 TKJ       0.103200
     45 H7           1.9810    26.9240    13.1490 h1         1 TKJ       0.103200
     46 H8           0.4900    26.5660    15.1170 hc         1 TKJ       0.075200
     47 H9          -0.4330    26.9890    13.6890 hc         1 TKJ       0.075200
     48 H10         -8.6330    25.2940    13.9140 ha         1 TKJ       0.146000
     49 H11        -10.0970    26.8070    15.1990 ha         1 TKJ       0.140000
     50 H12         -6.7270    29.2630    16.1870 ha         1 TKJ       0.140000
     51 H13         -5.2490    27.7670    14.8940 ha         1 TKJ       0.146000
     52 H14         -6.2950    24.8150    17.0630 ha         1 TKJ       0.123000
     53 H15         -8.4190    24.1900    18.0760 ha         1 TKJ       0.130000
     54 H16         -9.2390    21.6160    14.7340 ha         1 TKJ       0.130000
     55 H17         -7.1260    22.2250    13.7460 ha         1 TKJ       0.123000
     56 H18        -11.9900    21.8340    17.1310 h1         1 TKJ       0.063700
     57 H19        -10.9090    20.9960    16.0320 h1         1 TKJ       0.063700
     58 H20        -11.5690    24.6940    16.3250 ha         1 TKJ       0.116500
     59 H21        -12.4530    26.0510    14.4780 ha         1 TKJ       0.115500
     60 H22        -13.1080    24.9800    12.3440 ha         1 TKJ       0.117000
     61 H23        -12.8780    22.5310    12.0820 ha         1 TKJ       0.115500
     62 H24        -11.9760    21.1690    13.9250 ha         1 TKJ       0.116500
     63 H25         -4.3480    25.6280    15.8560 h1         1 TKJ       0.069700
     64 H26         -4.1930    23.9940    16.4800 h1         1 TKJ       0.069700
     65 H27         -2.3820    22.6760    13.7630 h1         1 TKJ       0.057700
     66 H28         -2.9640    23.9960    12.7490 h1         1 TKJ       0.057700
     67 H29         -4.9730    22.6980    12.8920 hc         1 TKJ       0.077200
     68 H30         -4.5280    22.0520    14.4620 hc         1 TKJ       0.077200
     69 F15         -9.2750    28.9080    16.4600 f          1 TKJ      -0.168000
@<TRIPOS>BOND
     1     1     2 1   
     2     1     5 1   
     3     1     7 1   
     4     1    39 1   
     5     2     3 1   
     6     2    40 1   
     7     2    41 1   
     8     3     6 1   
     9     3    42 1   
    10     3    43 1   
    11     4     5 1   
    12     4     6 1   
    13     4    44 1   
    14     4    45 1   
    15     5    46 1   
    16     5    47 1   
    17     6    37 2   
    18     6    38 2   
    19     7     8 2   
    20     7    34 1   
    21     9    10 ar  
    22     9    14 ar  
    23     9    48 1   
    24    10    11 ar  
    25    10    49 1   
    26    11    12 ar  
    27    11    69 1   
    28    12    13 ar  
    29    12    50 1   
    30    13    14 ar  
    31    13    51 1   
    32    14    15 1   
    33    15    16 1   
    34    15    31 2   
    35    15    32 2   
    36    16    17 1   
    37    16    33 1   
    38    16    36 1   
    39    17    18 ar  
    40    17    22 ar  
    41    18    19 ar  
    42    18    52 1   
    43    19    20 ar  
    44    19    53 1   
    45    20    21 ar  
    46    20    23 1   
    47    21    22 ar  
    48    21    54 1   
    49    22    55 1   
    50    23    24 1   
    51    24    25 1   
    52    24    56 1   
    53    24    57 1   
    54    25    26 ar  
    55    25    30 ar  
    56    26    27 ar  
    57    26    58 1   
    58    27    28 ar  
    59    27    59 1   
    60    28    29 ar  
    61    28    60 1   
    62    29    30 ar  
    63    29    61 1   
    64    30    62 1   
    65    33    34 1   
    66    33    63 1   
    67    33    64 1   
    68    34    35 1   
    69    35    36 1   
    70    35    65 1   
    71    35    66 1   
    72    36    67 1   
    73    36    68 1   
@<TRIPOS>SUBSTRUCTURE
     1 TKJ         1 TEMP              0 ****  ****    0 ROOT
