@<TRIPOS>MOLECULE
TKK
   31    33     1     0     0
SMALL
No Charge or Current Charge


@<TRIPOS>ATOM
      1 N19         24.2870    22.5080     2.5540 nc         1 TKK      -0.636000
      2 C17         20.7980    25.3480     0.7380 ca         1 TKK      -0.101000
      3 C16         19.8100    24.9930     1.6670 ca         1 TKK      -0.096000
      4 C15         20.0360    23.9240     2.5490 ca         1 TKK      -0.090000
      5 C12         22.2520    23.5580     1.5710 ca         1 TKK      -0.104500
      6 C03         22.0260    21.1870    -2.9370 ca         1 TKK      -0.176600
      7 C04         22.8410    22.3350    -3.0550 ca         1 TKK      -0.047000
      8 C05         23.5930    22.7960    -1.9620 ca         1 TKK      -0.120000
      9 C06         21.9830    20.5070    -1.6960 ca         1 TKK       0.030100
     10 C08         22.7390    20.9720    -0.6070 ca         1 TKK      -0.098000
     11 C09         23.5440    22.1210    -0.7310 ca         1 TKK       0.028800
     12 C11         23.5620    22.8710     1.5000 cd         1 TKK       0.462000
     13 C13         21.2470    23.2100     2.5110 ca         1 TKK       0.008100
     14 C18         22.0090    24.6380     0.6920 ca         1 TKK      -0.089000
     15 C20         25.3950    21.8730     2.0540 cc         1 TKK       0.238900
     16 C21         25.3850    21.8400     0.6840 cd         1 TKK      -0.213000
     17 N10         24.2870    22.6020     0.3470 na         1 TKK      -0.079300
     18 Br2         21.4190    21.7120     3.7040 br         1 TKK      -0.075100
     19 H1          20.6280    26.1780     0.0540 ha         1 TKK       0.122000
     20 H2          18.8710    25.5410     1.7030 ha         1 TKK       0.120000
     21 H3          19.2630    23.6430     3.2620 ha         1 TKK       0.133000
     22 H4          20.5990    19.8100    -3.9930 h4         1 TKK       0.014200
     23 H7          22.8950    22.8780    -3.9980 ha         1 TKK       0.144000
     24 H8          24.2140    23.6830    -2.0710 ha         1 TKK       0.137000
     25 H9          22.6970    20.4360     0.3390 ha         1 TKK       0.154000
     26 H10         22.7680    24.9390    -0.0260 ha         1 TKK       0.122000
     27 H11         26.1210    21.4340     2.7270 h4         1 TKK       0.044100
     28 H12         26.0490    21.3670    -0.0290 h4         1 TKK       0.163000
     29 O1          21.2460    21.2880    -5.2140 o          1 TKK      -0.507100
     30 Br1         20.9090    18.9390    -1.4250 br         1 TKK      -0.072100
     31 C02         21.2260    20.7160    -4.1280 c          1 TKK       0.583500
@<TRIPOS>BOND
     1     1    12 2   
     2     1    15 1   
     3     2     3 ar  
     4     2    14 ar  
     5     2    19 1   
     6     3     4 ar  
     7     3    20 1   
     8     4    13 ar  
     9     4    21 1   
    10     5    12 1   
    11     5    13 ar  
    12     5    14 ar  
    13     6     7 ar  
    14     6     9 ar  
    15     6    31 1   
    16     7     8 ar  
    17     7    23 1   
    18     8    11 ar  
    19     8    24 1   
    20     9    10 ar  
    21     9    30 1   
    22    10    11 ar  
    23    10    25 1   
    24    11    17 1   
    25    12    17 1   
    26    13    18 1   
    27    14    26 1   
    28    15    16 2   
    29    15    27 1   
    30    16    17 1   
    31    16    28 1   
    32    22    31 1   
    33    29    31 2   
@<TRIPOS>SUBSTRUCTURE
     1 TKK         1 TEMP              0 ****  ****    0 ROOT
