@<TRIPOS>MOLECULE
TKK
   31    33     1     0     0
SMALL
bcc


@<TRIPOS>ATOM
      1 N19         24.5830    23.0350     2.4880 nc         1 TKK      -0.636000
      2 C17         20.6440    25.0040     0.7730 ca         1 TKK      -0.119000
      3 C16         19.7260    24.5640     1.7140 ca         1 TKK      -0.114000
      4 C15         20.0760    23.5780     2.6240 ca         1 TKK      -0.108000
      5 C12         22.2920    23.4630     1.6500 ca         1 TKK      -0.104500
      6 C03         21.9780    21.3240    -3.0030 ca         1 TKK      -0.176600
      7 C04         23.2270    21.9420    -3.0730 ca         1 TKK      -0.065000
      8 C05         23.9450    22.2570    -1.9380 ca         1 TKK      -0.138000
      9 C06         21.4760    21.0050    -1.7390 ca         1 TKK       0.030100
     10 C08         22.1900    21.2950    -0.5880 ca         1 TKK      -0.116000
     11 C09         23.4150    21.9380    -0.6940 ca         1 TKK       0.028800
     12 C11         23.6530    22.9100     1.5810 cd         1 TKK       0.462000
     13 C13         21.3520    23.0330     2.5840 ca         1 TKK       0.008100
     14 C18         21.9160    24.4560     0.7460 ca         1 TKK      -0.107000
     15 C20         25.7010    22.4520     1.9660 cc         1 TKK       0.304200
     16 C21         25.4490    21.9730     0.7170 cd         1 TKK      -0.245600
     17 N10         24.1290    22.2620     0.4760 na         1 TKK      -0.130000
     18 BR2         21.7740    21.6450     3.7910 br         1 TKK      -0.075100
     19 H1          20.3740    25.7740     0.0630 ha         1 TKK       0.140000
     20 H2          18.7300    24.9860     1.7450 ha         1 TKK       0.138000
     21 H3          19.3530    23.2340     3.3520 ha         1 TKK       0.151000
     22 H4          20.2700    20.5800    -4.1850 h4         1 TKK       0.014200
     23 H7          23.6320    22.1960    -4.0440 ha         1 TKK       0.162000
     24 H8          24.8980    22.7620    -2.0130 ha         1 TKK       0.155000
     25 H9          21.8080    21.0120     0.3830 ha         1 TKK       0.172000
     26 H10         22.6360    24.8060     0.0170 ha         1 TKK       0.140000
     27 H11         26.6280    22.4050     2.5160 h4         1 TKK       0.044100
     28 H12         26.0550    21.4320     0.0100 h4         1 TKK       0.181000
     29 O1          21.7120    21.3350    -5.3520 o          1 TKK      -0.507100
     30 BR1         19.8170    20.1350    -1.5120 br         1 TKK      -0.072100
     31 C02         21.2590    21.0540    -4.2690 c          1 TKK       0.583500
@<TRIPOS>BOND
     1     1    12 2   
     2     1    15 1   
     3     2     3 ar  
     4     2    14 ar  
     5     2    19 1   
     6     3     4 ar  
     7     3    20 1   
     8     4    13 ar  
     9     4    21 1   
    10     5    12 1   
    11     5    13 ar  
    12     5    14 ar  
    13     6     7 ar  
    14     6     9 ar  
    15     6    31 1   
    16     7     8 ar  
    17     7    23 1   
    18     8    11 ar  
    19     8    24 1   
    20     9    10 ar  
    21     9    30 1   
    22    10    11 ar  
    23    10    25 1   
    24    11    17 1   
    25    12    17 1   
    26    13    18 1   
    27    14    26 1   
    28    15    16 2   
    29    15    27 1   
    30    16    17 1   
    31    16    28 1   
    32    22    31 1   
    33    29    31 2   
@<TRIPOS>SUBSTRUCTURE
     1 TKK         1 TEMP              0 ****  ****    0 ROOT
