@<TRIPOS>MOLECULE
TKM
   25    26     1     0     0
SMALL
abcg2


@<TRIPOS>ATOM
      1 N1          13.8190    -6.9130   -26.1560 na         1 TKM       0.131800
      2 C4          15.0400    -6.4810   -25.4750 c6         1 TKM       0.094300
      3 C5          16.1090    -6.0240   -26.4670 c6         1 TKM      -0.116400
      4 C6          17.3360    -5.5390   -25.7050 c6         1 TKM       0.155100
      5 C7          16.0630    -4.9260   -23.8140 c6         1 TKM       0.155100
      6 C8          14.7570    -5.3750   -24.4590 c6         1 TKM      -0.116400
      7 N           13.1540    -6.0270   -26.9230 nc         1 TKM      -0.594800
      8 O           14.8040    -9.3950   -24.8930 o          1 TKM      -0.713000
      9 C1          13.1810    -8.1190   -26.0940 cc         1 TKM      -0.165600
     10 C2          12.0420    -7.9870   -26.8770 cd         1 TKM      -0.243000
     11 C3          12.0780    -6.6770   -27.3690 cd         1 TKM       0.209900
     12 O1          12.7710   -10.2650   -25.2650 o          1 TKM      -0.713000
     13 O2          17.0110    -4.4930   -24.7900 os         1 TKM      -0.477000
     14 H1          15.3940    -7.3690   -24.9560 h1         1 TKM       0.124700
     15 H2          15.7200    -5.2140   -27.0860 hc         1 TKM       0.060200
     16 H3          16.3890    -6.8500   -27.1260 hc         1 TKM       0.060200
     17 H4          17.7920    -6.3730   -25.1530 h1         1 TKM       0.037950
     18 H5          18.0820    -5.1300   -26.3870 h1         1 TKM       0.037950
     19 H6          16.4980    -5.7480   -23.2300 h1         1 TKM       0.037950
     20 H7          15.8990    -4.0800   -23.1480 h1         1 TKM       0.037950
     21 H8          14.2850    -4.5260   -24.9570 hc         1 TKM       0.060200
     22 H9          14.0730    -5.7380   -23.6870 hc         1 TKM       0.060200
     23 H10         11.3050    -8.7490   -27.0580 ha         1 TKM       0.141000
     24 H11         11.3790    -6.1760   -28.0210 h4         1 TKM       0.004100
     25 C           13.6330    -9.3580   -25.3470 c          1 TKM       0.729600
@<TRIPOS>BOND
     1     1     2 1   
     2     1     7 1   
     3     1     9 1   
     4     2     3 1   
     5     2     6 1   
     6     2    14 1   
     7     3     4 1   
     8     3    15 1   
     9     3    16 1   
    10     4    13 1   
    11     4    17 1   
    12     4    18 1   
    13     5     6 1   
    14     5    13 1   
    15     5    19 1   
    16     5    20 1   
    17     6    21 1   
    18     6    22 1   
    19     7    11 2   
    20     8    25 1   
    21     9    10 2   
    22     9    25 1   
    23    10    11 1   
    24    10    23 1   
    25    11    24 1   
    26    12    25 1   
@<TRIPOS>SUBSTRUCTURE
     1 TKM         1 TEMP              0 ****  ****    0 ROOT
