@<TRIPOS>MOLECULE
TKM
   25    26     1     0     0
SMALL
No Charge or Current Charge


@<TRIPOS>ATOM
      1 N1          13.8650    -6.9280   -26.3080 na         1 TKM       0.131800
      2 C4          15.1240    -6.5050   -25.6250 c6         1 TKM       0.094300
      3 C5          16.1180    -5.7680   -26.5720 c6         1 TKM      -0.116400
      4 C6          17.3690    -5.3200   -25.7830 c6         1 TKM       0.155100
      5 C7          16.1270    -5.1690   -23.7080 c6         1 TKM       0.155100
      6 C8          14.8140    -5.6200   -24.3880 c6         1 TKM      -0.116400
      7 N           13.2960    -6.1850   -27.3390 nc         1 TKM      -0.594800
      8 O           14.2670    -9.0830   -24.2100 o          1 TKM      -0.713000
      9 C1          13.1140    -8.0700   -25.9860 cc         1 TKM      -0.165600
     10 C2          12.0650    -8.0170   -26.8690 cd         1 TKM      -0.243000
     11 C3          12.2190    -6.8690   -27.6580 cd         1 TKM       0.209900
     12 O1          12.4780   -10.0370   -24.8940 o          1 TKM      -0.713000
     13 O2          16.9720    -4.4950   -24.6660 os         1 TKM      -0.477000
     14 H1          15.6380    -7.4110   -25.2810 h1         1 TKM       0.124700
     15 H2          15.6450    -4.8840   -27.0190 hc         1 TKM       0.060200
     16 H3          16.4130    -6.4270   -27.3990 hc         1 TKM       0.060200
     17 H4          17.9250    -6.1940   -25.4130 h1         1 TKM       0.037950
     18 H5          18.0370    -4.7400   -26.4360 h1         1 TKM       0.037950
     19 H6          16.6640    -6.0370   -23.2960 h1         1 TKM       0.037950
     20 H7          15.9040    -4.4800   -22.8800 h1         1 TKM       0.037950
     21 H8          14.2340    -4.7380   -24.6900 hc         1 TKM       0.060200
     22 H9          14.1960    -6.1740   -23.6690 hc         1 TKM       0.060200
     23 H10         11.2510    -8.7310   -26.9440 ha         1 TKM       0.141000
     24 H11         11.5750    -6.5110   -28.4510 h4         1 TKM       0.004100
     25 C           13.3030    -9.1360   -24.9580 c          1 TKM       0.729600
@<TRIPOS>BOND
     1     1     2 1   
     2     1     7 1   
     3     1     9 1   
     4     2     3 1   
     5     2     6 1   
     6     2    14 1   
     7     3     4 1   
     8     3    15 1   
     9     3    16 1   
    10     4    13 1   
    11     4    17 1   
    12     4    18 1   
    13     5     6 1   
    14     5    13 1   
    15     5    19 1   
    16     5    20 1   
    17     6    21 1   
    18     6    22 1   
    19     7    11 2   
    20     8    25 1   
    21     9    10 2   
    22     9    25 1   
    23    10    11 1   
    24    10    23 1   
    25    11    24 1   
    26    12    25 1   
@<TRIPOS>SUBSTRUCTURE
     1 TKM         1 TEMP              0 ****  ****    0 ROOT
