@<TRIPOS>MOLECULE
TKN
   71    74     1     0     0
SMALL
No Charge or Current Charge


@<TRIPOS>ATOM
      1 C10        -16.2400   -42.6530   -24.1390 c3         1 TKN      -0.048100
      2 C12        -17.4180   -43.2790   -26.3850 c3         1 TKN      -0.073400
      3 C11        -16.3310   -42.4400   -25.6660 c3         1 TKN      -0.071400
      4 C13        -18.8720   -42.9570   -25.9560 c3         1 TKN      -0.077400
      5 C14        -19.4580   -43.9070   -24.8880 c3         1 TKN      -0.046200
      6 C15        -20.7640   -43.3850   -24.3280 c2         1 TKN      -0.182200
      7 C16        -21.9830   -43.6810   -24.8050 c2         1 TKN      -0.268200
      8 C17        -23.2960   -43.2180   -24.2260 c3         1 TKN       0.256000
      9 C19        -22.9460   -40.7780   -23.6220 ca         1 TKN       0.361000
     10 C21        -21.4780   -38.8980   -23.2530 ca         1 TKN       0.414300
     11 C20        -21.9690   -39.8930   -24.1220 ca         1 TKN      -0.214300
     12 C01        -13.5860   -37.7400   -21.2280 c3         1 TKN       0.148900
     13 C03        -14.3090   -39.8050   -22.3790 ca         1 TKN       0.170100
     14 C04        -15.3490   -40.5100   -23.0170 ca         1 TKN      -0.220600
     15 C05        -16.6970   -39.8570   -23.1470 c          1 TKN       0.634700
     16 C07        -15.7430   -38.6150   -25.0270 c3         1 TKN       0.166900
     17 C09        -15.1280   -41.8260   -23.4930 ca         1 TKN       0.002700
     18 C22        -20.4310   -37.8690   -23.6900 c6         1 TKN      -0.132700
     19 C23        -20.2930   -37.7480   -25.2230 c6         1 TKN      -0.074400
     20 C24        -20.1900   -39.1480   -25.8530 c6         1 TKN      -0.070400
     21 C25        -21.4710   -39.9710   -25.5820 c6         1 TKN      -0.018100
     22 C27        -22.8290   -39.5950   -21.4980 ca         1 TKN       0.302000
     23 C28        -23.2640   -39.4280   -20.1690 ca         1 TKN      -0.096000
     24 C29        -24.2740   -40.2380   -19.6280 ca         1 TKN      -0.098000
     25 C30        -24.8740   -41.2220   -20.4230 ca         1 TKN      -0.133000
     26 C31        -24.4510   -41.4070   -21.7480 ca         1 TKN      -0.080000
     27 C32        -23.4100   -40.6120   -22.2930 ca         1 TKN      -0.116000
     28 C33        -13.8500   -42.3990   -23.3590 ca         1 TKN      -0.153000
     29 C34        -12.8070   -41.6890   -22.7480 ca         1 TKN      -0.052000
     30 C35        -13.0350   -40.3970   -22.2520 ca         1 TKN      -0.202000
     31 N18        -23.4530   -41.7780   -24.4660 nu         1 TKN      -0.960200
     32 N26        -21.8830   -38.7650   -21.9760 nb         1 TKN      -0.712000
     33 O06        -16.8540   -38.9500   -24.1720 os         1 TKN      -0.442100
     34 O08        -17.6160   -40.1270   -22.3880 o          1 TKN      -0.431000
     35 H1         -17.2030   -42.4170   -23.6750 hc         1 TKN       0.061200
     36 H2         -16.0730   -43.7190   -23.9410 hc         1 TKN       0.061200
     37 H3         -17.3280   -43.0830   -27.4610 hc         1 TKN       0.041200
     38 H4         -17.2130   -44.3490   -26.2540 hc         1 TKN       0.041200
     39 H5         -15.3570   -42.6750   -26.1120 hc         1 TKN       0.038700
     40 H6         -16.5200   -41.3810   -25.8720 hc         1 TKN       0.038700
     41 H7         -18.9170   -41.9270   -25.5880 hc         1 TKN       0.043200
     42 H8         -19.5200   -42.9950   -26.8400 hc         1 TKN       0.043200
     43 H9         -19.6110   -44.8920   -25.3460 hc         1 TKN       0.050700
     44 H10        -18.7440   -44.0610   -24.0720 hc         1 TKN       0.050700
     45 H11        -20.6540   -42.7370   -23.4550 ha         1 TKN       0.172000
     46 H12        -22.0920   -44.3360   -25.6710 ha         1 TKN       0.173000
     47 H13        -24.1150   -43.7650   -24.7140 h1         1 TKN       0.052200
     48 H14        -23.3320   -43.4540   -23.1530 h1         1 TKN       0.052200
     49 H15        -14.0160   -36.7780   -20.9230 h1         1 TKN       0.045033
     50 H16        -13.2130   -38.2450   -20.3280 h1         1 TKN       0.045033
     51 H17        -12.7400   -37.5380   -21.8960 h1         1 TKN       0.045033
     52 H18        -16.0730   -37.9390   -25.8260 h1         1 TKN       0.045367
     53 H19        -14.9520   -38.1020   -24.4650 h1         1 TKN       0.045367
     54 H20        -15.3140   -39.5070   -25.4980 h1         1 TKN       0.045367
     55 H21        -19.4620   -38.1530   -23.2610 hc         1 TKN       0.060700
     56 H22        -20.6730   -36.8830   -23.2710 hc         1 TKN       0.060700
     57 H23        -19.4050   -37.1510   -25.4740 hc         1 TKN       0.040200
     58 H24        -21.1610   -37.2160   -25.6380 hc         1 TKN       0.040200
     59 H25        -19.3170   -39.6660   -25.4360 hc         1 TKN       0.047700
     60 H26        -20.0190   -39.0670   -26.9350 hc         1 TKN       0.047700
     61 H27        -22.2700   -39.6090   -26.2440 hc         1 TKN       0.043200
     62 H28        -21.2830   -41.0120   -25.8750 hc         1 TKN       0.043200
     63 H29        -22.8150   -38.6520   -19.5550 ha         1 TKN       0.127000
     64 H30        -24.6000   -40.0910   -18.6000 ha         1 TKN       0.111000
     65 H31        -25.6700   -41.8400   -20.0150 ha         1 TKN       0.109000
     66 H32        -24.9540   -42.1610   -22.3460 ha         1 TKN       0.111000
     67 H33        -13.6640   -43.4050   -23.7290 ha         1 TKN       0.120000
     68 H34        -11.8230   -42.1450   -22.6500 ha         1 TKN       0.116000
     69 H35        -12.2130   -39.8750   -21.7720 ha         1 TKN       0.123000
     70 H36        -23.3190   -41.5380   -25.4460 hn         1 TKN       0.471000
     71 O02        -14.5800   -38.5420   -21.8890 os         1 TKN      -0.344100
@<TRIPOS>BOND
     1     1     3 1   
     2     1    17 1   
     3     1    35 1   
     4     1    36 1   
     5     2     3 1   
     6     2     4 1   
     7     2    37 1   
     8     2    38 1   
     9     3    39 1   
    10     3    40 1   
    11     4     5 1   
    12     4    41 1   
    13     4    42 1   
    14     5     6 1   
    15     5    43 1   
    16     5    44 1   
    17     6     7 2   
    18     6    45 1   
    19     7     8 1   
    20     7    46 1   
    21     8    31 1   
    22     8    47 1   
    23     8    48 1   
    24     9    11 ar  
    25     9    27 ar  
    26     9    31 1   
    27    10    11 ar  
    28    10    18 1   
    29    10    32 ar  
    30    11    21 1   
    31    12    49 1   
    32    12    50 1   
    33    12    51 1   
    34    12    71 1   
    35    13    14 ar  
    36    13    30 ar  
    37    13    71 1   
    38    14    15 1   
    39    14    17 ar  
    40    15    33 1   
    41    15    34 2   
    42    16    33 1   
    43    16    52 1   
    44    16    53 1   
    45    16    54 1   
    46    17    28 ar  
    47    18    19 1   
    48    18    55 1   
    49    18    56 1   
    50    19    20 1   
    51    19    57 1   
    52    19    58 1   
    53    20    21 1   
    54    20    59 1   
    55    20    60 1   
    56    21    61 1   
    57    21    62 1   
    58    22    23 ar  
    59    22    27 ar  
    60    22    32 ar  
    61    23    24 ar  
    62    23    63 1   
    63    24    25 ar  
    64    24    64 1   
    65    25    26 ar  
    66    25    65 1   
    67    26    27 ar  
    68    26    66 1   
    69    28    29 ar  
    70    28    67 1   
    71    29    30 ar  
    72    29    68 1   
    73    30    69 1   
    74    31    70 1   
@<TRIPOS>SUBSTRUCTURE
     1 TKN         1 TEMP              0 ****  ****    0 ROOT
