@<TRIPOS>MOLECULE
TKN
   71    74     1     0     0
SMALL
bcc


@<TRIPOS>ATOM
      1 C10        -15.7980   -43.3280   -24.2130 c3         1 TKN      -0.048100
      2 C12        -17.0090   -44.5470   -26.1210 c3         1 TKN      -0.073400
      3 C11        -15.8750   -43.6080   -25.7170 c3         1 TKN      -0.071400
      4 C13        -18.4100   -43.9840   -25.8370 c3         1 TKN      -0.077400
      5 C14        -19.0520   -44.5360   -24.5700 c3         1 TKN      -0.046200
      6 C15        -20.3480   -43.9010   -24.1710 c2         1 TKN      -0.132200
      7 C16        -21.0320   -42.9990   -24.8680 c2         1 TKN      -0.218200
      8 C17        -22.3330   -42.4070   -24.4210 c3         1 TKN       0.256000
      9 C19        -22.6260   -40.1110   -23.4300 ca         1 TKN       0.222600
     10 C21        -22.2690   -38.1360   -22.0900 ca         1 TKN       0.479600
     11 C20        -21.8370   -39.0020   -23.1150 ca         1 TKN      -0.279600
     12 C01        -13.8110   -37.6750   -22.8400 c3         1 TKN       0.125700
     13 C03        -14.2070   -39.9540   -23.3850 ca         1 TKN       0.170100
     14 C04        -15.1630   -40.9360   -23.6690 ca         1 TKN      -0.220600
     15 C05        -16.6030   -40.5280   -23.6230 c          1 TKN       0.683700
     16 C07        -16.3600   -39.6370   -25.8460 c3         1 TKN       0.143700
     17 C09        -14.7890   -42.2610   -23.8840 ca         1 TKN       0.002700
     18 C22        -21.4680   -36.9110   -21.7300 c6         1 TKN      -0.132700
     19 C23        -20.4920   -36.4880   -22.8140 c6         1 TKN      -0.074400
     20 C24        -19.6630   -37.6880   -23.2350 c6         1 TKN      -0.070400
     21 C25        -20.5480   -38.7590   -23.8600 c6         1 TKN      -0.018100
     22 C27        -24.1310   -39.3970   -21.6580 ca         1 TKN       0.432600
     23 C28        -25.3120   -39.5760   -20.8950 ca         1 TKN      -0.179300
     24 C29        -26.2010   -40.5690   -21.1980 ca         1 TKN      -0.116000
     25 C30        -25.9580   -41.4220   -22.2920 ca         1 TKN      -0.151000
     26 C31        -24.8110   -41.2890   -23.0280 ca         1 TKN      -0.098000
     27 C32        -23.8460   -40.3030   -22.7100 ca         1 TKN      -0.181300
     28 C33        -13.4320   -42.5810   -23.8370 ca         1 TKN      -0.171000
     29 C34        -12.4880   -41.6070   -23.5690 ca         1 TKN      -0.070000
     30 C35        -12.8600   -40.2880   -23.3390 ca         1 TKN      -0.220000
     31 N18        -22.2520   -40.9460   -24.4440 nu         1 TKN      -0.766600
     32 N26        -23.3510   -38.3370   -21.3690 nb         1 TKN      -0.712000
     33 O06        -17.1360   -39.9430   -24.6870 os         1 TKN      -0.418900
     34 O08        -17.2980   -40.7230   -22.6590 o          1 TKN      -0.480000
     35 H1         -16.7790   -43.0440   -23.8340 hc         1 TKN       0.061200
     36 H2         -15.5310   -44.2510   -23.6920 hc         1 TKN       0.061200
     37 H3         -16.9070   -44.7450   -27.1900 hc         1 TKN       0.041200
     38 H4         -16.8820   -45.5160   -25.6270 hc         1 TKN       0.041200
     39 H5         -14.9200   -44.0220   -26.0490 hc         1 TKN       0.038700
     40 H6         -15.9990   -42.6630   -26.2550 hc         1 TKN       0.038700
     41 H7         -18.3510   -42.8920   -25.7710 hc         1 TKN       0.043200
     42 H8         -19.0700   -44.1920   -26.6830 hc         1 TKN       0.043200
     43 H9         -19.2120   -45.6140   -24.6830 hc         1 TKN       0.050700
     44 H10        -18.3630   -44.4500   -23.7240 hc         1 TKN       0.050700
     45 H11        -20.7500   -44.2270   -23.2150 ha         1 TKN       0.122000
     46 H12        -20.6670   -42.6600   -25.8340 ha         1 TKN       0.123000
     47 H13        -23.1360   -42.7530   -25.0800 h1         1 TKN       0.052200
     48 H14        -22.5670   -42.7570   -23.4140 h1         1 TKN       0.052200
     49 H15        -14.4190   -36.7850   -22.7000 h1         1 TKN       0.045033
     50 H16        -13.2660   -37.8820   -21.9160 h1         1 TKN       0.045033
     51 H17        -13.0930   -37.4900   -23.6430 h1         1 TKN       0.045033
     52 H18        -17.0730   -39.3770   -26.6230 h1         1 TKN       0.045367
     53 H19        -15.7050   -38.7870   -25.6640 h1         1 TKN       0.045367
     54 H20        -15.7680   -40.4870   -26.1810 h1         1 TKN       0.045367
     55 H21        -20.9130   -37.1210   -20.8090 hc         1 TKN       0.060700
     56 H22        -22.1640   -36.1060   -21.4840 hc         1 TKN       0.060700
     57 H23        -19.8560   -35.6810   -22.4460 hc         1 TKN       0.040200
     58 H24        -21.0370   -36.0920   -23.6780 hc         1 TKN       0.040200
     59 H25        -19.1490   -38.0960   -22.3600 hc         1 TKN       0.047700
     60 H26        -18.8860   -37.4050   -23.9480 hc         1 TKN       0.047700
     61 H27        -20.7730   -38.4710   -24.8950 hc         1 TKN       0.043200
     62 H28        -19.9780   -39.6910   -23.9270 hc         1 TKN       0.043200
     63 H29        -25.4970   -38.8870   -20.0800 ha         1 TKN       0.145000
     64 H30        -27.1030   -40.6880   -20.6120 ha         1 TKN       0.129000
     65 H31        -26.6840   -42.1780   -22.5590 ha         1 TKN       0.127000
     66 H32        -24.6700   -41.9400   -23.8780 ha         1 TKN       0.129000
     67 H33        -13.1210   -43.6050   -24.0030 ha         1 TKN       0.138000
     68 H34        -11.4390   -41.8710   -23.5290 ha         1 TKN       0.134000
     69 H35        -12.1010   -39.5490   -23.1210 ha         1 TKN       0.141000
     70 H36        -21.4660   -40.6140   -24.9770 hn         1 TKN       0.415800
     71 O02        -14.7040   -38.7230   -23.1660 os         1 TKN      -0.320900
@<TRIPOS>BOND
     1     1     3 1   
     2     1    17 1   
     3     1    35 1   
     4     1    36 1   
     5     2     3 1   
     6     2     4 1   
     7     2    37 1   
     8     2    38 1   
     9     3    39 1   
    10     3    40 1   
    11     4     5 1   
    12     4    41 1   
    13     4    42 1   
    14     5     6 1   
    15     5    43 1   
    16     5    44 1   
    17     6     7 2   
    18     6    45 1   
    19     7     8 1   
    20     7    46 1   
    21     8    31 1   
    22     8    47 1   
    23     8    48 1   
    24     9    11 ar  
    25     9    27 ar  
    26     9    31 1   
    27    10    11 ar  
    28    10    18 1   
    29    10    32 ar  
    30    11    21 1   
    31    12    49 1   
    32    12    50 1   
    33    12    51 1   
    34    12    71 1   
    35    13    14 ar  
    36    13    30 ar  
    37    13    71 1   
    38    14    15 1   
    39    14    17 ar  
    40    15    33 1   
    41    15    34 2   
    42    16    33 1   
    43    16    52 1   
    44    16    53 1   
    45    16    54 1   
    46    17    28 ar  
    47    18    19 1   
    48    18    55 1   
    49    18    56 1   
    50    19    20 1   
    51    19    57 1   
    52    19    58 1   
    53    20    21 1   
    54    20    59 1   
    55    20    60 1   
    56    21    61 1   
    57    21    62 1   
    58    22    23 ar  
    59    22    27 ar  
    60    22    32 ar  
    61    23    24 ar  
    62    23    63 1   
    63    24    25 ar  
    64    24    64 1   
    65    25    26 ar  
    66    25    65 1   
    67    26    27 ar  
    68    26    66 1   
    69    28    29 ar  
    70    28    67 1   
    71    29    30 ar  
    72    29    68 1   
    73    30    69 1   
    74    31    70 1   
@<TRIPOS>SUBSTRUCTURE
     1 TKN         1 TEMP              0 ****  ****    0 ROOT
