@<TRIPOS>MOLECULE
TKO
   25    27     1     0     0
SMALL
No Charge or Current Charge


@<TRIPOS>ATOM
      1 C02        -19.4310     7.5440    18.2960 ca         1 TKO       0.386900
      2 C04        -20.0920     5.3560    18.4060 ca         1 TKO       0.169000
      3 C05        -19.8090     3.9960    18.8730 cc         1 TKO       0.045000
      4 C06        -20.6140     3.2600    19.6980 cd         1 TKO      -0.135000
      5 C07        -19.9020     2.0710    19.9630 cd         1 TKO      -0.197000
      6 C08        -18.6970     2.1540    19.3110 cc         1 TKO       0.148900
      7 C10        -21.2780     5.7010    17.7030 ca         1 TKO      -0.179000
      8 C11        -22.2570     4.7450    17.3460 ca         1 TKO      -0.026000
      9 C12        -23.4110     5.1450    16.6540 ca         1 TKO      -0.041900
     10 C14        -23.5970     6.4910    16.3060 ca         1 TKO      -0.053000
     11 C15        -22.6200     7.4420    16.6450 ca         1 TKO      -0.109000
     12 C16        -21.4560     7.0610    17.3380 ca         1 TKO       0.087000
     13 N01        -18.4970     8.4820    18.5890 nv         1 TKO      -1.053900
     14 N03        -19.1650     6.2930    18.6910 nb         1 TKO      -0.222000
     15 N17        -20.5180     7.9800    17.6450 nb         1 TKO      -0.254000
     16 O09        -18.6120     3.3600    18.6480 os         1 TKO      -0.213000
     17 Br13       -24.7320     3.8470    16.1770 br         1 TKO      -0.105100
     18 H1         -21.5920     3.5420    20.0760 ha         1 TKO       0.147000
     19 H2         -20.2340     1.2410    20.5790 ha         1 TKO       0.147000
     20 H3         -17.8550     1.4780    19.2480 h4         1 TKO       0.057100
     21 H4         -22.1330     3.6930    17.5860 ha         1 TKO       0.135000
     22 H5         -24.4920     6.7980    15.7690 ha         1 TKO       0.133000
     23 H6         -22.7650     8.4830    16.3650 ha         1 TKO       0.138000
     24 H7         -18.7540     9.4630    18.5060 hn         1 TKO       0.497000
     25 H8         -17.7710     8.2560    19.2660 hn         1 TKO       0.497000
@<TRIPOS>BOND
     1     1    13 1   
     2     1    14 ar  
     3     1    15 ar  
     4     2     3 1   
     5     2     7 ar  
     6     2    14 ar  
     7     3     4 2   
     8     3    16 1   
     9     4     5 1   
    10     4    18 1   
    11     5     6 2   
    12     5    19 1   
    13     6    16 1   
    14     6    20 1   
    15     7     8 ar  
    16     7    12 ar  
    17     8     9 ar  
    18     8    21 1   
    19     9    10 ar  
    20     9    17 1   
    21    10    11 ar  
    22    10    22 1   
    23    11    12 ar  
    24    11    23 1   
    25    12    15 ar  
    26    13    24 1   
    27    13    25 1   
@<TRIPOS>SUBSTRUCTURE
     1 TKO         1 TEMP              0 ****  ****    0 ROOT
