@<TRIPOS>MOLECULE
TKO
   25    27     1     0     0
SMALL
abcg2


@<TRIPOS>ATOM
      1 C02        -19.4140     7.5090    18.2200 ca         1 TKO       0.386900
      2 C04        -20.1410     5.3350    18.4120 ca         1 TKO       0.169000
      3 C05        -19.8970     4.0010    18.9400 cc         1 TKO       0.045000
      4 C06        -20.6990     2.9850    19.3880 cd         1 TKO      -0.135000
      5 C07        -19.8380     1.9660    19.8860 cd         1 TKO      -0.197000
      6 C08        -18.5700     2.4220    19.7070 cc         1 TKO       0.148900
      7 C10        -21.3440     5.6820    17.7090 ca         1 TKO      -0.179000
      8 C11        -22.3430     4.7680    17.3130 ca         1 TKO      -0.026000
      9 C12        -23.4680     5.2300    16.6820 ca         1 TKO      -0.041900
     10 C14        -23.6540     6.5970    16.4060 ca         1 TKO      -0.053000
     11 C15        -22.6750     7.4930    16.7500 ca         1 TKO      -0.109000
     12 C16        -21.4870     7.0610    17.3880 ca         1 TKO       0.087000
     13 N01        -18.3770     8.3630    18.4100 nv         1 TKO      -1.053900
     14 N03        -19.2000     6.2300    18.6310 nb         1 TKO      -0.222000
     15 N17        -20.5200     7.9700    17.6610 nb         1 TKO      -0.254000
     16 O09        -18.5850     3.6550    19.1450 os         1 TKO      -0.213000
     17 BR13       -24.8250     3.9930    16.1390 br         1 TKO      -0.105100
     18 H1         -21.7750     2.9750    19.4080 ha         1 TKO       0.147000
     19 H2         -20.1280     1.0240    20.3200 ha         1 TKO       0.147000
     20 H3         -17.5980     2.0070    19.9120 h4         1 TKO       0.057100
     21 H4         -22.2150     3.7110    17.4810 ha         1 TKO       0.135000
     22 H5         -24.5550     6.9320    15.9110 ha         1 TKO       0.133000
     23 H6         -22.7850     8.5450    16.5260 ha         1 TKO       0.138000
     24 H7         -18.5510     9.3500    18.3090 hn         1 TKO       0.497000
     25 H8         -17.6390     8.0800    19.0320 hn         1 TKO       0.497000
@<TRIPOS>BOND
     1     1    13 1   
     2     1    14 ar  
     3     1    15 ar  
     4     2     3 1   
     5     2     7 ar  
     6     2    14 ar  
     7     3     4 2   
     8     3    16 1   
     9     4     5 1   
    10     4    18 1   
    11     5     6 2   
    12     5    19 1   
    13     6    16 1   
    14     6    20 1   
    15     7     8 ar  
    16     7    12 ar  
    17     8     9 ar  
    18     8    21 1   
    19     9    10 ar  
    20     9    17 1   
    21    10    11 ar  
    22    10    22 1   
    23    11    12 ar  
    24    11    23 1   
    25    12    15 ar  
    26    13    24 1   
    27    13    25 1   
@<TRIPOS>SUBSTRUCTURE
     1 TKO         1 TEMP              0 ****  ****    0 ROOT
