@<TRIPOS>MOLECULE
TKP
   76    78     1     0     0
SMALL
abcg2


@<TRIPOS>ATOM
      1 C29         25.0930    25.3280   -33.8750 c3         1 TKP      -0.086100
      2 C01         23.1950    25.5740   -35.4610 c3         1 TKP      -0.086100
      3 C02         24.1250    24.5620   -34.7780 c3         1 TKP      -0.002700
      4 C03         23.2490    23.6500   -33.9190 c3         1 TKP       0.189600
      5 C05         23.5050    21.7520   -32.5470 c          1 TKP       0.640100
      6 C30         24.8400    23.7330   -35.8390 ca         1 TKP      -0.049300
      7 C31         24.0840    22.9690   -36.7310 ca         1 TKP      -0.104000
      8 C32         24.7070    22.2110   -37.7060 ca         1 TKP       0.122000
      9 C34         26.0870    22.1850   -37.8360 ca         1 TKP      -0.105000
     10 C35         26.8380    22.9440   -36.9540 ca         1 TKP      -0.103000
     11 C36         26.2250    23.7060   -35.9670 ca         1 TKP      -0.100000
     12 O04         24.0780    22.6360   -33.3650 os         1 TKP      -0.450100
     13 O28         22.3360    21.7830   -32.2200 o          1 TKP      -0.558000
     14 CL3         23.7340    21.2680   -38.7920 cl         1 TKP      -0.209000
     15 N06         24.3840    20.8110   -32.1510 ns         1 TKP      -0.474900
     16 C07         24.0290    19.8660   -31.1230 c3         1 TKP       0.046700
     17 C15         23.8170    20.5850   -29.7890 c          1 TKP       0.589100
     18 O27         24.5590    21.4890   -29.4380 o          1 TKP      -0.606100
     19 C08         25.1360    18.8220   -30.9760 c3         1 TKP      -0.083400
     20 C09         25.2540    17.8650   -32.1640 c6         1 TKP      -0.063700
     21 C10         24.0690    16.9010   -32.2310 c6         1 TKP      -0.071900
     22 C11         24.1990    15.9060   -33.3800 c6         1 TKP      -0.073400
     23 C12         25.5100    15.1320   -33.2920 c6         1 TKP      -0.075400
     24 C13         26.6990    16.0860   -33.2370 c6         1 TKP      -0.073400
     25 C14         26.5630    17.0780   -32.0860 c6         1 TKP      -0.071900
     26 C20         19.3560    22.7580   -29.0050 c          1 TKP       0.564000
     27 N21         19.4300    24.0670   -29.2930 ns         1 TKP      -0.513900
     28 C22         20.7790    24.5660   -29.4660 c5         1 TKP       0.100000
     29 C23         21.6100    23.5020   -28.7480 c5         1 TKP      -0.090400
     30 C19         20.7790    22.2310   -28.9130 c5         1 TKP      -0.157700
     31 C18         20.9560    21.1700   -27.8410 c3         1 TKP      -0.074400
     32 C17         22.3810    20.6160   -27.7770 c3         1 TKP       0.104700
     33 N16         22.7930    20.1130   -29.0690 ns         1 TKP      -0.484900
     34 C25         22.4830    19.5270   -26.7210 c3         1 TKP       0.147600
     35 O26         23.8150    19.0820   -26.6530 oh         1 TKP      -0.651000
     36 H20         24.5280    25.9030   -33.1390 hc         1 TKP       0.042033
     37 H21         25.7710    24.6690   -33.3320 hc         1 TKP       0.042033
     38 H22         25.6960    26.0370   -34.4430 hc         1 TKP       0.042033
     39 H23         22.6540    26.1630   -34.7190 hc         1 TKP       0.042033
     40 H24         23.7700    26.2630   -36.0810 hc         1 TKP       0.042033
     41 H25         22.4570    25.0880   -36.1010 hc         1 TKP       0.042033
     42 H26         22.7770    24.2380   -33.1260 h1         1 TKP       0.050700
     43 H27         22.4520    23.2010   -34.5170 h1         1 TKP       0.050700
     44 H33         23.0030    22.9570   -36.6680 ha         1 TKP       0.126000
     45 H34         26.5630    21.5910   -38.6040 ha         1 TKP       0.129000
     46 H35         27.9180    22.9390   -37.0350 ha         1 TKP       0.117000
     47 H36         26.8490    24.2760   -35.2950 ha         1 TKP       0.118000
     48 H37         25.3600    20.9440   -32.3650 hn         1 TKP       0.335500
     49 H28         23.0990    19.3700   -31.4150 h1         1 TKP       0.076700
     50 H29         24.9500    18.2390   -30.0680 hc         1 TKP       0.060700
     51 H30         26.0860    19.3420   -30.8140 hc         1 TKP       0.060700
     52 H31         25.2730    18.4550   -33.0900 hc         1 TKP       0.056700
     53 H2          24.0150    16.3530   -31.2820 hc         1 TKP       0.038200
     54 H1          23.1290    17.4510   -32.3240 hc         1 TKP       0.038200
     55 H8          23.3490    15.2200   -33.3760 hc         1 TKP       0.040450
     56 H7          24.1610    16.4440   -34.3340 hc         1 TKP       0.040450
     57 H4          25.6080    14.4520   -34.1420 hc         1 TKP       0.038700
     58 H3          25.5030    14.5080   -32.3920 hc         1 TKP       0.038700
     59 H6          26.7590    16.6380   -34.1810 hc         1 TKP       0.040450
     60 H5          27.6330    15.5270   -33.1430 hc         1 TKP       0.040450
     61 H9          26.5970    16.5380   -31.1310 hc         1 TKP       0.038200
     62 H10         27.4120    17.7680   -32.0830 hc         1 TKP       0.038200
     63 H14         21.0430    24.6330   -30.5260 h1         1 TKP       0.044200
     64 H15         20.8910    25.5580   -29.0290 h1         1 TKP       0.044200
     65 H16         21.7010    23.7540   -27.6880 hc         1 TKP       0.063700
     66 H17         22.6130    23.4140   -29.1590 hc         1 TKP       0.063700
     67 H32         21.0040    21.7960   -29.8950 hc         1 TKP       0.098700
     68 H12         20.7040    21.5880   -26.8620 hc         1 TKP       0.057200
     69 H13         20.2510    20.3520   -28.0200 hc         1 TKP       0.057200
     70 H11         23.0680    21.4210   -27.5110 h1         1 TKP       0.094700
     71 H38         22.2240    19.3870   -29.4760 hn         1 TKP       0.312500
     72 H18         22.1390    19.9400   -25.7640 h1         1 TKP       0.023200
     73 H19         21.7940    18.7110   -26.9810 h1         1 TKP       0.023200
     74 H40         23.8600    18.3670   -26.0120 ho         1 TKP       0.443000
     75 H39         18.6140    24.6120   -29.5240 hn         1 TKP       0.324500
     76 O24         18.3310    22.1090   -28.8620 o          1 TKP      -0.564000
@<TRIPOS>BOND
     1     1     3 1   
     2     1    36 1   
     3     1    37 1   
     4     1    38 1   
     5     2     3 1   
     6     2    39 1   
     7     2    40 1   
     8     2    41 1   
     9     3     4 1   
    10     3     6 1   
    11     4    12 1   
    12     4    42 1   
    13     4    43 1   
    14     5    12 1   
    15     5    13 2   
    16     5    15 1   
    17     6     7 ar  
    18     6    11 ar  
    19     7     8 ar  
    20     7    44 1   
    21     8     9 ar  
    22     8    14 1   
    23     9    10 ar  
    24     9    45 1   
    25    10    11 ar  
    26    10    46 1   
    27    11    47 1   
    28    15    16 1   
    29    15    48 1   
    30    16    17 1   
    31    16    19 1   
    32    16    49 1   
    33    17    18 2   
    34    17    33 1   
    35    19    20 1   
    36    19    50 1   
    37    19    51 1   
    38    20    21 1   
    39    20    25 1   
    40    20    52 1   
    41    21    22 1   
    42    21    53 1   
    43    21    54 1   
    44    22    23 1   
    45    22    55 1   
    46    22    56 1   
    47    23    24 1   
    48    23    57 1   
    49    23    58 1   
    50    24    25 1   
    51    24    59 1   
    52    24    60 1   
    53    25    61 1   
    54    25    62 1   
    55    26    27 1   
    56    26    30 1   
    57    26    76 2   
    58    27    28 1   
    59    27    75 1   
    60    28    29 1   
    61    28    63 1   
    62    28    64 1   
    63    29    30 1   
    64    29    65 1   
    65    29    66 1   
    66    30    31 1   
    67    30    67 1   
    68    31    32 1   
    69    31    68 1   
    70    31    69 1   
    71    32    33 1   
    72    32    34 1   
    73    32    70 1   
    74    33    71 1   
    75    34    35 1   
    76    34    72 1   
    77    34    73 1   
    78    35    74 1   
@<TRIPOS>SUBSTRUCTURE
     1 TKP         1 TEMP              0 ****  ****    0 ROOT
