@<TRIPOS>MOLECULE
TKP
   76    78     1     0     0
SMALL
No Charge or Current Charge


@<TRIPOS>ATOM
      1 C29         25.3550    25.1830   -35.1590 c3         1 TKP      -0.086100
      2 C01         24.2730    24.3610   -37.2660 c3         1 TKP      -0.086100
      3 C02         24.7600    23.9230   -35.8570 c3         1 TKP      -0.002700
      4 C03         23.5400    23.4130   -35.0330 c3         1 TKP       0.189600
      5 C05         23.2050    22.1650   -33.0110 c          1 TKP       0.640100
      6 C30         25.7850    22.7640   -36.0090 ca         1 TKP      -0.049300
      7 C31         25.3990    21.5730   -36.6730 ca         1 TKP      -0.104000
      8 C32         26.2930    20.5000   -36.8180 ca         1 TKP       0.122000
      9 C34         27.5900    20.5860   -36.2960 ca         1 TKP      -0.105000
     10 C35         27.9930    21.7520   -35.6300 ca         1 TKP      -0.103000
     11 C36         27.1030    22.8320   -35.4880 ca         1 TKP      -0.100000
     12 O04         24.0170    22.9630   -33.7510 os         1 TKP      -0.450100
     13 O28         22.0910    21.7810   -33.3310 o          1 TKP      -0.558000
     14 Cl3         25.7860    19.0470   -37.6680 cl         1 TKP      -0.209000
     15 N06         23.8950    21.7610   -31.9050 ns         1 TKP      -0.474900
     16 C07         23.4930    20.6590   -31.0060 c3         1 TKP       0.046700
     17 C15         23.4360    21.1460   -29.5280 c          1 TKP       0.589100
     18 O27         23.9260    22.2040   -29.1490 o          1 TKP      -0.606100
     19 C08         24.4630    19.4540   -31.1680 c3         1 TKP      -0.083400
     20 C09         24.6670    18.9140   -32.6210 c6         1 TKP      -0.063700
     21 C10         23.3580    18.3350   -33.2310 c6         1 TKP      -0.071900
     22 C11         23.5870    17.8250   -34.6750 c6         1 TKP      -0.073400
     23 C12         24.7220    16.7740   -34.7260 c6         1 TKP      -0.075400
     24 C13         26.0280    17.3290   -34.1080 c6         1 TKP      -0.073400
     25 C14         25.7920    17.8420   -32.6660 c6         1 TKP      -0.071900
     26 C20         18.8570    21.8690   -27.1960 c          1 TKP       0.564000
     27 N21         18.5400    23.1990   -27.2450 ns         1 TKP      -0.513900
     28 C22         19.6260    24.0700   -27.6880 c5         1 TKP       0.100000
     29 C23         20.8580    23.2120   -27.2900 c5         1 TKP      -0.090400
     30 C19         20.3390    21.7750   -27.5820 c5         1 TKP      -0.157700
     31 C18         21.1070    20.6330   -26.8560 c3         1 TKP      -0.074400
     32 C17         22.6080    20.5060   -27.2220 c3         1 TKP       0.104700
     33 N16         22.7730    20.2930   -28.6690 ns         1 TKP      -0.484900
     34 C25         23.3100    19.3900   -26.4010 c3         1 TKP       0.147600
     35 O26         24.7100    19.3160   -26.7170 oh         1 TKP      -0.651000
     36 H20         24.6000    25.9750   -35.0760 hc         1 TKP       0.042033
     37 H21         25.7030    24.9560   -34.1440 hc         1 TKP       0.042033
     38 H22         26.1990    25.5880   -35.7310 hc         1 TKP       0.042033
     39 H23         23.5780    25.2080   -37.1950 hc         1 TKP       0.042033
     40 H24         25.1200    24.6710   -37.8890 hc         1 TKP       0.042033
     41 H25         23.7490    23.5520   -37.7870 hc         1 TKP       0.042033
     42 H26         22.7990    24.2140   -34.9110 h1         1 TKP       0.050700
     43 H27         23.0580    22.5920   -35.5780 h1         1 TKP       0.050700
     44 H33         24.3990    21.4680   -37.0830 ha         1 TKP       0.126000
     45 H34         28.2790    19.7520   -36.4080 ha         1 TKP       0.129000
     46 H35         28.9990    21.8230   -35.2220 ha         1 TKP       0.117000
     47 H36         27.4600    23.7120   -34.9630 ha         1 TKP       0.118000
     48 H37         24.8050    22.1850   -31.7810 hn         1 TKP       0.335500
     49 H28         22.4780    20.3360   -31.2680 h1         1 TKP       0.076700
     50 H29         24.1180    18.6350   -30.5240 hc         1 TKP       0.060700
     51 H30         25.4370    19.7570   -30.7630 hc         1 TKP       0.060700
     52 H31         24.9950    19.7620   -33.2390 hc         1 TKP       0.056700
     53 H2          22.9860    17.5120   -32.6040 hc         1 TKP       0.038200
     54 H1          22.5680    19.0960   -33.2430 hc         1 TKP       0.038200
     55 H8          22.6580    17.3900   -35.0680 hc         1 TKP       0.040450
     56 H7          23.8350    18.6730   -35.3280 hc         1 TKP       0.040450
     57 H4          24.9020    16.4690   -35.7660 hc         1 TKP       0.038700
     58 H3          24.4120    15.8690   -34.1840 hc         1 TKP       0.038700
     59 H6          26.4150    18.1470   -34.7310 hc         1 TKP       0.040450
     60 H5          26.8000    16.5480   -34.1040 hc         1 TKP       0.040450
     61 H9          25.5320    16.9980   -32.0120 hc         1 TKP       0.038200
     62 H10         26.7280    18.2640   -32.2730 hc         1 TKP       0.038200
     63 H14         19.5860    24.2370   -28.7730 h1         1 TKP       0.044200
     64 H15         19.6240    25.0460   -27.1850 h1         1 TKP       0.044200
     65 H16         21.0920    23.3420   -26.2260 hc         1 TKP       0.063700
     66 H17         21.7560    23.4750   -27.8600 hc         1 TKP       0.063700
     67 H32         20.3690    21.6140   -28.6660 hc         1 TKP       0.098700
     68 H12         21.0250    20.7770   -25.7710 hc         1 TKP       0.057200
     69 H13         20.6170    19.6750   -27.0710 hc         1 TKP       0.057200
     70 H11         23.0930    21.4520   -26.9450 h1         1 TKP       0.094700
     71 H38         22.4100    19.4350   -29.0680 hn         1 TKP       0.312500
     72 H18         23.1790    19.5980   -25.3300 h1         1 TKP       0.023200
     73 H19         22.8250    18.4280   -26.6140 h1         1 TKP       0.023200
     74 H40         25.0890    18.5890   -26.1750 ho         1 TKP       0.443000
     75 H39         17.6200    23.4970   -26.9420 hn         1 TKP       0.324500
     76 O24         18.1230    21.0250   -26.7100 o          1 TKP      -0.564000
@<TRIPOS>BOND
     1     1     3 1   
     2     1    36 1   
     3     1    37 1   
     4     1    38 1   
     5     2     3 1   
     6     2    39 1   
     7     2    40 1   
     8     2    41 1   
     9     3     4 1   
    10     3     6 1   
    11     4    12 1   
    12     4    42 1   
    13     4    43 1   
    14     5    12 1   
    15     5    13 2   
    16     5    15 1   
    17     6     7 ar  
    18     6    11 ar  
    19     7     8 ar  
    20     7    44 1   
    21     8     9 ar  
    22     8    14 1   
    23     9    10 ar  
    24     9    45 1   
    25    10    11 ar  
    26    10    46 1   
    27    11    47 1   
    28    15    16 1   
    29    15    48 1   
    30    16    17 1   
    31    16    19 1   
    32    16    49 1   
    33    17    18 2   
    34    17    33 1   
    35    19    20 1   
    36    19    50 1   
    37    19    51 1   
    38    20    21 1   
    39    20    25 1   
    40    20    52 1   
    41    21    22 1   
    42    21    53 1   
    43    21    54 1   
    44    22    23 1   
    45    22    55 1   
    46    22    56 1   
    47    23    24 1   
    48    23    57 1   
    49    23    58 1   
    50    24    25 1   
    51    24    59 1   
    52    24    60 1   
    53    25    61 1   
    54    25    62 1   
    55    26    27 1   
    56    26    30 1   
    57    26    76 2   
    58    27    28 1   
    59    27    75 1   
    60    28    29 1   
    61    28    63 1   
    62    28    64 1   
    63    29    30 1   
    64    29    65 1   
    65    29    66 1   
    66    30    31 1   
    67    30    67 1   
    68    31    32 1   
    69    31    68 1   
    70    31    69 1   
    71    32    33 1   
    72    32    34 1   
    73    32    70 1   
    74    33    71 1   
    75    34    35 1   
    76    34    72 1   
    77    34    73 1   
    78    35    74 1   
@<TRIPOS>SUBSTRUCTURE
     1 TKP         1 TEMP              0 ****  ****    0 ROOT
