@<TRIPOS>MOLECULE
TKQ
   39    40     1     0     0
SMALL
bcc


@<TRIPOS>ATOM
      1 N1          -2.0970     7.0190    12.6920 ns         1 TKQ      -0.590900
      2 C7          -2.5390     5.8790    13.4540 c3         1 TKQ       0.117000
      3 C8          -4.0660     5.7720    13.5590 c3         1 TKQ      -0.071100
      4 N2          -6.5480     0.1790    16.1130 n8         1 TKQ      -0.897700
      5 C9          -4.4500     4.5780    14.3800 ca         1 TKQ      -0.024300
      6 O1          -4.1640     0.0130    16.7870 o          1 TKQ      -0.614800
      7 C1          -1.3510    10.5660    12.6360 ca         1 TKQ       0.103600
      8 C5          -1.2140    12.8220    11.7590 ca         1 TKQ      -0.069500
      9 C6          -1.4840    11.4760    11.5840 ca         1 TKQ      -0.172000
     10 C4          -0.8120    13.2800    13.0050 ca         1 TKQ       0.028900
     11 C3          -0.6730    12.3930    14.0620 ca         1 TKQ      -0.069500
     12 C2          -0.9360    11.0430    13.8820 ca         1 TKQ      -0.172000
     13 O2          -5.6810     1.3560    18.2520 o          1 TKQ      -0.614800
     14 C12         -5.0300     2.3440    15.9240 ca         1 TKQ      -0.276500
     15 C11         -4.6920     2.1810    14.5850 ca         1 TKQ      -0.023000
     16 C10         -4.4120     3.2990    13.8220 ca         1 TKQ      -0.148000
     17 C13         -5.0820     3.6020    16.5000 ca         1 TKQ      -0.023000
     18 C14         -4.7870     4.7120    15.7220 ca         1 TKQ      -0.148000
     19 C           -1.9430     8.2410    13.2570 c          1 TKQ       0.795100
     20 O           -2.0800     8.4420    14.4540 o          1 TKQ      -0.616100
     21 N           -1.5980     9.2260    12.3590 ns         1 TKQ      -0.492100
     22 I           -0.4030    15.3230    13.2900 i          1 TKQ      -0.176900
     23 H1          -2.0480     6.9140    11.6920 hn         1 TKQ       0.309500
     24 H2          -2.1410     4.9840    12.9740 h1         1 TKQ       0.064700
     25 H3          -2.1030     5.9240    14.4510 h1         1 TKQ       0.064700
     26 H4          -4.4610     6.6830    14.0110 hc         1 TKQ       0.060200
     27 H5          -4.4900     5.6930    12.5550 hc         1 TKQ       0.060200
     28 H6          -6.6110    -0.8090    16.3410 hn         1 TKQ       0.419300
     29 H7          -7.4400     0.6380    16.2680 hn         1 TKQ       0.419300
     30 H8          -1.3280    13.4970    10.9220 ha         1 TKQ       0.145500
     31 H9          -1.8050    11.1280    10.6090 ha         1 TKQ       0.147500
     32 H10         -0.3500    12.7330    15.0360 ha         1 TKQ       0.145500
     33 H11         -0.8020    10.3740    14.7160 ha         1 TKQ       0.147500
     34 H12         -4.6580     1.1970    14.1350 ha         1 TKQ       0.156000
     35 H13         -4.1590     3.1770    12.7750 ha         1 TKQ       0.139000
     36 H14         -5.3450     3.7270    17.5420 ha         1 TKQ       0.156000
     37 H15         -4.8220     5.6970    16.1710 ha         1 TKQ       0.139000
     38 H16         -1.6440     8.9960    11.3770 hn         1 TKQ       0.312500
     39 S           -5.3030     0.9100    16.9190 sy         1 TKQ       1.270200
@<TRIPOS>BOND
     1     1     2 1   
     2     1    19 1   
     3     1    23 1   
     4     2     3 1   
     5     2    24 1   
     6     2    25 1   
     7     3     5 1   
     8     3    26 1   
     9     3    27 1   
    10     4    28 1   
    11     4    29 1   
    12     4    39 1   
    13     5    16 ar  
    14     5    18 ar  
    15     6    39 2   
    16     7     9 ar  
    17     7    12 ar  
    18     7    21 1   
    19     8     9 ar  
    20     8    10 ar  
    21     8    30 1   
    22     9    31 1   
    23    10    11 ar  
    24    10    22 1   
    25    11    12 ar  
    26    11    32 1   
    27    12    33 1   
    28    13    39 2   
    29    14    15 ar  
    30    14    17 ar  
    31    14    39 1   
    32    15    16 ar  
    33    15    34 1   
    34    16    35 1   
    35    17    18 ar  
    36    17    36 1   
    37    18    37 1   
    38    19    20 2   
    39    19    21 1   
    40    21    38 1   
@<TRIPOS>SUBSTRUCTURE
     1 TKQ         1 TEMP              0 ****  ****    0 ROOT
