@<TRIPOS>MOLECULE
TKQ
   39    40     1     0     0
SMALL
No Charge or Current Charge


@<TRIPOS>ATOM
      1 N1          -1.9600     7.0800    12.8500 ns         1 TKQ      -0.523900
      2 C7          -2.3570     5.8570    13.5560 c3         1 TKQ       0.117000
      3 C8          -3.8850     5.7420    13.7140 c3         1 TKQ      -0.071100
      4 N2          -7.1010     0.7070    16.7520 n8         1 TKQ      -1.008100
      5 C9          -4.2870     4.4600    14.4280 ca         1 TKQ      -0.024300
      6 O1          -5.3220    -0.5960    15.7290 o          1 TKQ      -0.544000
      7 C1          -1.3490    10.7120    12.6450 ca         1 TKQ       0.011000
      8 C5          -0.7190    12.8110    11.5550 ca         1 TKQ      -0.051500
      9 C6          -0.9180    11.4190    11.5050 ca         1 TKQ      -0.154000
     10 C4          -0.9500    13.5090    12.7500 ca         1 TKQ       0.166000
     11 C3          -1.3810    12.8170    13.8930 ca         1 TKQ      -0.051500
     12 C2          -1.5810    11.4250    13.8430 ca         1 TKQ      -0.154000
     13 O2          -5.0110     0.5690    17.9860 o          1 TKQ      -0.544000
     14 C12         -5.0180     2.0780    15.7580 ca         1 TKQ      -0.276500
     15 C11         -4.9840     2.1210    14.3490 ca         1 TKQ      -0.005000
     16 C10         -4.6180     3.3080    13.6910 ca         1 TKQ      -0.130000
     17 C13         -4.6880     3.2300    16.5000 ca         1 TKQ      -0.005000
     18 C14         -4.3230     4.4140    15.8340 ca         1 TKQ      -0.130000
     19 C           -1.9140     8.3310    13.4210 c          1 TKQ       0.661100
     20 O           -2.1840     8.5220    14.5970 o          1 TKQ      -0.616100
     21 N           -1.5290     9.3080    12.5160 ns         1 TKQ      -0.166000
     22 I           -0.6450    15.6520    12.8300 i          1 TKQ      -0.314000
     23 H1          -1.7150     7.0110    11.8700 hn         1 TKQ       0.309500
     24 H2          -1.9840     4.9910    12.9920 h1         1 TKQ       0.064700
     25 H3          -1.8820     5.8420    14.5460 h1         1 TKQ       0.064700
     26 H4          -4.2590     6.6120    14.2680 hc         1 TKQ       0.060200
     27 H5          -4.3520     5.7870    12.7220 hc         1 TKQ       0.060200
     28 H6          -7.3990    -0.1810    16.3550 hn         1 TKQ       0.474500
     29 H7          -7.2070     0.5400    17.7500 hn         1 TKQ       0.474500
     30 H8          -0.3860    13.3480    10.6710 ha         1 TKQ       0.127500
     31 H9          -0.7350    10.8890    10.5720 ha         1 TKQ       0.129500
     32 H10         -1.5600    13.3620    14.8160 ha         1 TKQ       0.127500
     33 H11         -1.9150    10.9240    14.7450 ha         1 TKQ       0.129500
     34 H12         -5.2390     1.2400    13.7620 ha         1 TKQ       0.138000
     35 H13         -4.5920     3.3300    12.6040 ha         1 TKQ       0.121000
     36 H14         -4.7120     3.2150    17.5890 ha         1 TKQ       0.138000
     37 H15         -4.0670     5.2970    16.4150 ha         1 TKQ       0.121000
     38 H16         -1.3410     8.9600    11.5860 hn         1 TKQ       0.146000
     39 S           -5.4830     0.5640    16.6040 sy         1 TKQ       1.128600
@<TRIPOS>BOND
     1     1     2 1   
     2     1    19 1   
     3     1    23 1   
     4     2     3 1   
     5     2    24 1   
     6     2    25 1   
     7     3     5 1   
     8     3    26 1   
     9     3    27 1   
    10     4    28 1   
    11     4    29 1   
    12     4    39 1   
    13     5    16 ar  
    14     5    18 ar  
    15     6    39 2   
    16     7     9 ar  
    17     7    12 ar  
    18     7    21 1   
    19     8     9 ar  
    20     8    10 ar  
    21     8    30 1   
    22     9    31 1   
    23    10    11 ar  
    24    10    22 1   
    25    11    12 ar  
    26    11    32 1   
    27    12    33 1   
    28    13    39 2   
    29    14    15 ar  
    30    14    17 ar  
    31    14    39 1   
    32    15    16 ar  
    33    15    34 1   
    34    16    35 1   
    35    17    18 ar  
    36    17    36 1   
    37    18    37 1   
    38    19    20 2   
    39    19    21 1   
    40    21    38 1   
@<TRIPOS>SUBSTRUCTURE
     1 TKQ         1 TEMP              0 ****  ****    0 ROOT
