@<TRIPOS>MOLECULE
TKS
   77    79     1     0     0
SMALL
bcc


@<TRIPOS>ATOM
      1 C10         -2.5890    -4.0840   -52.5870 c6         1 TKS      -0.072900
      2 C12         -4.3250    -2.2660   -52.7120 c6         1 TKS      -0.075400
      3 C13         -3.4630    -1.3920   -51.8070 c6         1 TKS      -0.072900
      4 C15          0.7830    -4.3770   -48.9090 c          1 TKS       0.651100
      5 C11         -3.4630    -3.2390   -53.5080 c6         1 TKS      -0.072900
      6 C14         -2.5830    -2.2350   -50.8890 c6         1 TKS      -0.072900
      7 C17          0.7950    -5.2330   -46.5970 c3         1 TKS       0.111700
      8 C18          1.2300    -4.3600   -45.4220 c3         1 TKS      -0.077400
      9 C20          2.6520    -2.3870   -44.6900 c          1 TKS       0.707500
     10 C22          4.5390    -2.6670   -46.0550 c5         1 TKS       0.100000
     11 C23          3.5770    -3.8150   -46.3630 c5         1 TKS      -0.091400
     12 C25         -0.1940    -6.3170   -46.1800 c3         1 TKS       0.280200
     13 C29          5.9730     0.6360   -50.8970 c3         1 TKS      -0.086100
     14 C01          5.7560    -1.7910   -51.3750 c3         1 TKS      -0.086100
     15 C02          5.0130    -0.4540   -51.3900 c3         1 TKS      -0.002700
     16 C03          3.8530    -0.5150   -50.3970 c3         1 TKS       0.165400
     17 C07          0.0900    -3.3820   -49.8430 c3         1 TKS       0.045700
     18 C08         -0.8910    -4.1240   -50.7480 c3         1 TKS      -0.082400
     19 C09         -1.7180    -3.2240   -51.6690 c6         1 TKS      -0.058700
     20 C19          2.2400    -3.3020   -45.8310 c5         1 TKS      -0.158700
     21 C30          4.4900    -0.0890   -52.7740 ca         1 TKS      -0.049300
     22 C31          3.8060     1.1150   -52.9550 ca         1 TKS      -0.121000
     23 C32          3.3260     1.4670   -54.2040 ca         1 TKS       0.029400
     24 C34          3.5070     0.6510   -55.3100 ca         1 TKS      -0.122000
     25 C35          4.1880    -0.5410   -55.1340 ca         1 TKS      -0.121000
     26 C36          4.6710    -0.9090   -53.8840 ca         1 TKS      -0.118000
     27 N06          1.0700    -2.6820   -50.6340 ns         1 TKS      -0.535900
     28 N16          0.2650    -4.4310   -47.6720 ns         1 TKS      -0.547900
     29 N21          3.9500    -2.0900   -44.8650 ns         1 TKS      -0.579900
     30 O04          2.9010    -1.4570   -50.8770 os         1 TKS      -0.423900
     31 O27          1.7210    -5.0550   -49.2970 o          1 TKS      -0.608100
     32 O28          1.8170    -1.4170   -48.9040 o          1 TKS      -0.607000
     33 CL3          2.4760     2.9690   -54.3880 cl         1 TKS      -0.116400
     34 S1          -1.8140    -5.6060   -45.6320 sh         1 TKS      -0.488900
     35 H1          -3.2290    -4.7280   -51.9710 hc         1 TKS       0.039700
     36 H2          -1.9540    -4.7520   -53.1760 hc         1 TKS       0.039700
     37 H3          -4.9180    -1.6440   -53.3860 hc         1 TKS       0.038700
     38 H4          -5.0380    -2.8290   -52.1000 hc         1 TKS       0.038700
     39 H5          -2.8270    -0.7490   -52.4250 hc         1 TKS       0.039700
     40 H6          -4.0910    -0.7260   -51.2110 hc         1 TKS       0.039700
     41 H7          -4.0900    -3.8870   -54.1250 hc         1 TKS       0.039700
     42 H8          -2.8240    -2.6770   -54.1990 hc         1 TKS       0.039700
     43 H9          -1.9600    -1.5710   -50.2840 hc         1 TKS       0.039700
     44 H10         -3.2160    -2.7910   -50.1860 hc         1 TKS       0.039700
     45 H11          1.6720    -5.7540   -46.9890 h1         1 TKS       0.096700
     46 H12          0.3570    -3.8750   -44.9760 hc         1 TKS       0.060700
     47 H13          1.6640    -5.0060   -44.6530 hc         1 TKS       0.060700
     48 H14          5.5570    -3.0060   -45.8660 h1         1 TKS       0.044700
     49 H15          4.5690    -1.9400   -46.8730 h1         1 TKS       0.044700
     50 H16          3.5530    -4.0660   -47.4200 hc         1 TKS       0.062200
     51 H17          3.8790    -4.7090   -45.8100 hc         1 TKS       0.062200
     52 H18          0.2160    -6.8620   -45.3220 h2         1 TKS       0.047700
     53 H19          5.4840     1.6070   -50.8070 hc         1 TKS       0.041867
     54 H20          6.3770     0.3780   -49.9160 hc         1 TKS       0.041867
     55 H21          6.8120     0.7460   -51.5840 hc         1 TKS       0.041867
     56 H22          6.0980    -2.0080   -50.3620 hc         1 TKS       0.041867
     57 H23          5.1340    -2.6260   -51.6980 hc         1 TKS       0.041867
     58 H24          6.6380    -1.7620   -52.0170 hc         1 TKS       0.041867
     59 H25          4.2340    -0.8140   -49.4160 h1         1 TKS       0.050700
     60 H26          3.3820     0.4660   -50.2810 h1         1 TKS       0.050700
     61 H27         -0.4550    -2.6510   -49.2410 h1         1 TKS       0.082700
     62 H28         -1.5690    -4.7020   -50.1120 hc         1 TKS       0.060700
     63 H29         -0.3370    -4.8530   -51.3500 hc         1 TKS       0.060700
     64 H30         -1.0310    -2.6500   -52.3050 hc         1 TKS       0.053700
     65 H31          1.7900    -2.6480   -46.5880 hc         1 TKS       0.101700
     66 H32          3.6410     1.7920   -52.1250 ha         1 TKS       0.143000
     67 H33          3.1290     0.9400   -56.2810 ha         1 TKS       0.147000
     68 H34          4.3440    -1.1950   -55.9820 ha         1 TKS       0.135000
     69 H35          5.1930    -1.8510   -53.7910 ha         1 TKS       0.136000
     70 H36          1.3320    -3.0810   -51.5220 hn         1 TKS       0.334500
     71 H37         -0.4800    -3.7900   -47.4420 hn         1 TKS       0.329500
     72 H38          4.4200    -1.3930   -44.3080 hn         1 TKS       0.326500
     73 H39         -0.9280    -7.9020   -46.9950 ho         1 TKS       0.422000
     74 H40         -1.5320    -5.5030   -44.3280 hs         1 TKS       0.229800
     75 O26         -0.4240    -7.1320   -47.2770 oh         1 TKS      -0.549800
     76 C05          1.9270    -1.8230   -50.0430 c          1 TKS       0.753100
     77 O24          1.9320    -1.9790   -43.7920 o          1 TKS      -0.635500
@<TRIPOS>BOND
     1     1     5 1   
     2     1    19 1   
     3     1    35 1   
     4     1    36 1   
     5     2     3 1   
     6     2     5 1   
     7     2    37 1   
     8     2    38 1   
     9     3     6 1   
    10     3    39 1   
    11     3    40 1   
    12     4    17 1   
    13     4    28 1   
    14     4    31 2   
    15     5    41 1   
    16     5    42 1   
    17     6    19 1   
    18     6    43 1   
    19     6    44 1   
    20     7     8 1   
    21     7    12 1   
    22     7    28 1   
    23     7    45 1   
    24     8    20 1   
    25     8    46 1   
    26     8    47 1   
    27     9    20 1   
    28     9    29 1   
    29     9    77 2   
    30    10    11 1   
    31    10    29 1   
    32    10    48 1   
    33    10    49 1   
    34    11    20 1   
    35    11    50 1   
    36    11    51 1   
    37    12    34 1   
    38    12    52 1   
    39    12    75 1   
    40    13    15 1   
    41    13    53 1   
    42    13    54 1   
    43    13    55 1   
    44    14    15 1   
    45    14    56 1   
    46    14    57 1   
    47    14    58 1   
    48    15    16 1   
    49    15    21 1   
    50    16    30 1   
    51    16    59 1   
    52    16    60 1   
    53    17    18 1   
    54    17    27 1   
    55    17    61 1   
    56    18    19 1   
    57    18    62 1   
    58    18    63 1   
    59    19    64 1   
    60    20    65 1   
    61    21    22 ar  
    62    21    26 ar  
    63    22    23 ar  
    64    22    66 1   
    65    23    24 ar  
    66    23    33 1   
    67    24    25 ar  
    68    24    67 1   
    69    25    26 ar  
    70    25    68 1   
    71    26    69 1   
    72    27    70 1   
    73    27    76 1   
    74    28    71 1   
    75    29    72 1   
    76    30    76 1   
    77    32    76 2   
    78    34    74 1   
    79    73    75 1   
@<TRIPOS>SUBSTRUCTURE
     1 TKS         1 TEMP              0 ****  ****    0 ROOT
