@<TRIPOS>MOLECULE
TKS
   77    79     1     0     0
SMALL
No Charge or Current Charge


@<TRIPOS>ATOM
      1 C10         -1.5900    -3.0890   -52.3250 c6         1 TKS      -0.072900
      2 C12         -2.6210    -0.7850   -52.7260 c6         1 TKS      -0.075400
      3 C13         -1.6560    -0.1780   -51.6790 c6         1 TKS      -0.072900
      4 C15          1.3810    -4.3110   -48.3270 c          1 TKS       0.584100
      5 C11         -2.0090    -2.0430   -53.3880 c6         1 TKS      -0.072900
      6 C14         -1.2400    -1.2290   -50.6220 c6         1 TKS      -0.072900
      7 C17          0.5490    -5.7580   -46.4200 c3         1 TKS       0.111700
      8 C18          0.5680    -5.2150   -44.9660 c3         1 TKS      -0.077400
      9 C20          1.7080    -3.7030   -43.1990 c          1 TKS       0.565000
     10 C22          3.9800    -3.8270   -43.9040 c5         1 TKS       0.100000
     11 C23          3.1570    -4.8220   -44.7670 c5         1 TKS      -0.091400
     12 C25         -0.5670    -6.8270   -46.6450 c3         1 TKS       0.351300
     13 C29          5.0850     1.5150   -53.1450 c3         1 TKS      -0.086100
     14 C01          5.8570    -0.8360   -52.7430 c3         1 TKS      -0.086100
     15 C02          4.6020     0.0850   -52.7740 c3         1 TKS      -0.002700
     16 C03          3.9590     0.1170   -51.3550 c3         1 TKS       0.188600
     17 C07          0.9750    -3.1330   -49.2600 c3         1 TKS       0.045700
     18 C08         -0.1540    -3.5550   -50.2450 c3         1 TKS      -0.082400
     19 C09         -0.6030    -2.4820   -51.2900 c6         1 TKS      -0.058700
     20 C19          1.7260    -4.2280   -44.6410 c5         1 TKS      -0.158700
     21 C30          3.5290    -0.3730   -53.8030 ca         1 TKS      -0.049300
     22 C31          2.3500     0.3940   -53.9700 ca         1 TKS      -0.103000
     23 C32          1.3520     0.0040   -54.8770 ca         1 TKS       0.121000
     24 C34          1.5030    -1.1660   -55.6320 ca         1 TKS      -0.104000
     25 C35          2.6590    -1.9440   -55.4810 ca         1 TKS      -0.103000
     26 C36          3.6640    -1.5530   -54.5780 ca         1 TKS      -0.100000
     27 N06          2.1460    -2.6320   -50.0090 ns         1 TKS      -0.468900
     28 N16          0.4340    -4.6450   -47.3810 ns         1 TKS      -0.480900
     29 N21          3.0180    -3.5350   -42.8440 ns         1 TKS      -0.512900
     30 O04          3.4610    -1.2000   -51.0560 os         1 TKS      -0.447100
     31 O27          2.4540    -4.8970   -48.4100 o          1 TKS      -0.608100
     32 O28          2.1110    -0.4250   -49.3650 o          1 TKS      -0.558000
     33 Cl3         -0.0900     0.9920   -55.0720 cl         1 TKS      -0.208000
     34 S1          -2.2730    -6.1280   -46.6720 sh         1 TKS      -0.536800
     35 H1          -2.4840    -3.4720   -51.8120 hc         1 TKS       0.039700
     36 H2          -1.1270    -3.9500   -52.8270 hc         1 TKS       0.039700
     37 H3          -2.8570    -0.0360   -53.4950 hc         1 TKS       0.038700
     38 H4          -3.5720    -1.0470   -52.2430 hc         1 TKS       0.038700
     39 H5          -0.7600     0.2120   -52.1810 hc         1 TKS       0.039700
     40 H6          -2.1330     0.6790   -51.1850 hc         1 TKS       0.039700
     41 H7          -2.7340    -2.4880   -54.0840 hc         1 TKS       0.039700
     42 H8          -1.1350    -1.7590   -53.9890 hc         1 TKS       0.039700
     43 H9          -0.5360    -0.7670   -49.9180 hc         1 TKS       0.039700
     44 H10         -2.1180    -1.5260   -50.0320 hc         1 TKS       0.039700
     45 H11          1.5050    -6.2720   -46.5830 h1         1 TKS       0.096700
     46 H12         -0.3900    -4.7190   -44.7640 hc         1 TKS       0.060700
     47 H13          0.6180    -6.0670   -44.2760 hc         1 TKS       0.060700
     48 H14          4.9080    -4.2770   -43.5280 h1         1 TKS       0.044700
     49 H15          4.2370    -2.9210   -44.4700 h1         1 TKS       0.044700
     50 H16          3.5170    -4.8780   -45.8010 hc         1 TKS       0.062200
     51 H17          3.2090    -5.8330   -44.3450 hc         1 TKS       0.062200
     52 H18         -0.5500    -7.5410   -45.8130 h2         1 TKS       0.047700
     53 H19          4.2710     2.2470   -53.0940 hc         1 TKS       0.041867
     54 H20          5.8720     1.8530   -52.4590 hc         1 TKS       0.041867
     55 H21          5.4920     1.5340   -54.1630 hc         1 TKS       0.041867
     56 H22          6.5860    -0.4760   -52.0060 hc         1 TKS       0.041867
     57 H23          5.5960    -1.8650   -52.4670 hc         1 TKS       0.041867
     58 H24          6.3560    -0.8560   -53.7190 hc         1 TKS       0.041867
     59 H25          4.6980     0.4310   -50.6060 h1         1 TKS       0.050700
     60 H26          3.1430     0.8510   -51.3490 h1         1 TKS       0.050700
     61 H27          0.5980    -2.3350   -48.6080 h1         1 TKS       0.082700
     62 H28         -1.0260    -3.8800   -49.6650 hc         1 TKS       0.060700
     63 H29          0.1930    -4.4470   -50.7820 hc         1 TKS       0.060700
     64 H30          0.2960    -2.1670   -51.8380 hc         1 TKS       0.053700
     65 H31          1.6600    -3.3490   -45.2930 hc         1 TKS       0.101700
     66 H32          2.1950     1.3030   -53.3950 ha         1 TKS       0.125000
     67 H33          0.7270    -1.4670   -56.3320 ha         1 TKS       0.129000
     68 H34          2.7800    -2.8540   -56.0650 ha         1 TKS       0.117000
     69 H35          4.5400    -2.1890   -54.4930 ha         1 TKS       0.118000
     70 H36          2.6320    -3.2620   -50.6330 hn         1 TKS       0.334500
     71 H37         -0.4360    -4.1270   -47.4030 hn         1 TKS       0.329500
     72 H38          3.2400    -3.2710   -41.8910 hn         1 TKS       0.326500
     73 H39         -1.1320    -8.0310   -48.0450 ho         1 TKS       0.461000
     74 H40         -2.2470    -5.6570   -45.4000 hs         1 TKS       0.229800
     75 O26         -0.3050    -7.5460   -47.8430 oh         1 TKS      -0.612000
     76 C05          2.5390    -1.3260   -50.0670 c          1 TKS       0.637100
     77 O24          0.7870    -3.6510   -42.4010 o          1 TKS      -0.560000
@<TRIPOS>BOND
     1     1     5 1   
     2     1    19 1   
     3     1    35 1   
     4     1    36 1   
     5     2     3 1   
     6     2     5 1   
     7     2    37 1   
     8     2    38 1   
     9     3     6 1   
    10     3    39 1   
    11     3    40 1   
    12     4    17 1   
    13     4    28 1   
    14     4    31 2   
    15     5    41 1   
    16     5    42 1   
    17     6    19 1   
    18     6    43 1   
    19     6    44 1   
    20     7     8 1   
    21     7    12 1   
    22     7    28 1   
    23     7    45 1   
    24     8    20 1   
    25     8    46 1   
    26     8    47 1   
    27     9    20 1   
    28     9    29 1   
    29     9    77 2   
    30    10    11 1   
    31    10    29 1   
    32    10    48 1   
    33    10    49 1   
    34    11    20 1   
    35    11    50 1   
    36    11    51 1   
    37    12    34 1   
    38    12    52 1   
    39    12    75 1   
    40    13    15 1   
    41    13    53 1   
    42    13    54 1   
    43    13    55 1   
    44    14    15 1   
    45    14    56 1   
    46    14    57 1   
    47    14    58 1   
    48    15    16 1   
    49    15    21 1   
    50    16    30 1   
    51    16    59 1   
    52    16    60 1   
    53    17    18 1   
    54    17    27 1   
    55    17    61 1   
    56    18    19 1   
    57    18    62 1   
    58    18    63 1   
    59    19    64 1   
    60    20    65 1   
    61    21    22 ar  
    62    21    26 ar  
    63    22    23 ar  
    64    22    66 1   
    65    23    24 ar  
    66    23    33 1   
    67    24    25 ar  
    68    24    67 1   
    69    25    26 ar  
    70    25    68 1   
    71    26    69 1   
    72    27    70 1   
    73    27    76 1   
    74    28    71 1   
    75    29    72 1   
    76    30    76 1   
    77    32    76 2   
    78    34    74 1   
    79    73    75 1   
@<TRIPOS>SUBSTRUCTURE
     1 TKS         1 TEMP              0 ****  ****    0 ROOT
