@<TRIPOS>MOLECULE
TKT
   41    44     1     0     0
SMALL
No Charge or Current Charge


@<TRIPOS>ATOM
      1 C12          1.6450    -0.0570     0.3820 cc         1 TKT      -0.218400
      2 O4           0.6330    -2.1840    -0.0170 o          1 TKT      -0.504000
      3 C9           0.5200    -1.0200     0.3430 c          1 TKT       0.641300
      4 C11          1.5420     1.2700     0.7910 cd         1 TKT      -0.086100
      5 O3          -0.6660    -0.4800     0.7680 os         1 TKT      -0.463100
      6 C7          -2.4620     1.1810    -1.1880 c5         1 TKT      -0.100900
      7 C6          -2.8220     1.7190     0.2410 c5         1 TKT      -0.100900
      8 N1          -4.3660     0.0290    -0.3700 n3         1 TKT      -0.696600
      9 C5          -3.7310     0.6010     0.8470 c5         1 TKT       0.160000
     10 C4          -2.9810    -0.5480     1.5840 c6         1 TKT      -0.074900
     11 C1          -3.2070    -0.1910    -1.2740 c5         1 TKT       0.160000
     12 C2          -2.4100    -1.4180    -0.7420 c6         1 TKT      -0.074900
     13 C3          -1.8990    -1.2320     0.7140 c6         1 TKT       0.188300
     14 C13          5.7420    -0.0940    -0.5290 ca         1 TKT      -0.093000
     15 C15          3.6770     0.9070     0.2170 ca         1 TKT      -0.066200
     16 C16          3.0190    -0.2760     0.0160 ca         1 TKT      -0.050800
     17 C17          3.6800    -1.4190    -0.4620 ca         1 TKT      -0.053000
     18 C18          5.0610    -1.3160    -0.7360 ca         1 TKT      -0.134000
     19 N10          2.8150     1.8830     0.6910 na         1 TKT      -0.212700
     20 C21          5.0480     1.0350    -0.0470 ca         1 TKT      -0.125000
     21 H11          0.6670     1.8150     1.1400 h4         1 TKT       0.225000
     22 H81C        -5.1460     1.8370    -1.2410 h1         1 TKT       0.031033
     23 H82C        -5.8870     0.3340    -1.8320 h1         1 TKT       0.031033
     24 H83C        -6.2860     0.9430    -0.2120 h1         1 TKT       0.031033
     25 H10          3.0470     2.8450     0.9200 hn         1 TKT       0.352000
     26 H3          -1.6970    -2.2220     1.1480 h1         1 TKT       0.063700
     27 H71C        -2.8180     1.8690    -1.9620 hc         1 TKT       0.046700
     28 H72C        -1.3820     1.0750    -1.3390 hc         1 TKT       0.046700
     29 H61C        -1.9360     1.9090     0.8570 hc         1 TKT       0.046700
     30 H62C        -3.3620     2.6690     0.1730 hc         1 TKT       0.046700
     31 H1          -3.5210    -0.4130    -2.3040 h1         1 TKT       0.061700
     32 H5          -4.4720     1.0210     1.5430 h1         1 TKT       0.061700
     33 H41C        -2.5280    -0.1640     2.5070 hc         1 TKT       0.059700
     34 H42C        -3.7160    -1.3010     1.8980 hc         1 TKT       0.059700
     35 H21C        -3.0630    -2.3000    -0.7780 hc         1 TKT       0.059700
     36 H22C        -1.5770    -1.6350    -1.4210 hc         1 TKT       0.059700
     37 H13          6.8070    -0.0240    -0.7430 ha         1 TKT       0.112000
     38 H18          5.6040    -2.1830    -1.1080 ha         1 TKT       0.114000
     39 H21          5.5640     1.9790     0.1150 ha         1 TKT       0.113000
     40 H17          3.1520    -2.3560    -0.6200 ha         1 TKT       0.138000
     41 C8          -5.4750     0.8330    -0.9440 c3         1 TKT       0.146100
@<TRIPOS>BOND
     1     1     3 1   
     2     1     4 2   
     3     1    16 1   
     4     2     3 2   
     5     3     5 1   
     6     4    19 1   
     7     4    21 1   
     8     5    13 1   
     9     6     7 1   
    10     6    11 1   
    11     6    27 1   
    12     6    28 1   
    13     7     9 1   
    14     7    29 1   
    15     7    30 1   
    16     8     9 1   
    17     8    11 1   
    18     8    41 1   
    19     9    10 1   
    20     9    32 1   
    21    10    13 1   
    22    10    33 1   
    23    10    34 1   
    24    11    12 1   
    25    11    31 1   
    26    12    13 1   
    27    12    35 1   
    28    12    36 1   
    29    13    26 1   
    30    14    18 ar  
    31    14    20 ar  
    32    14    37 1   
    33    15    16 ar  
    34    15    19 1   
    35    15    20 ar  
    36    16    17 ar  
    37    17    18 ar  
    38    17    40 1   
    39    18    38 1   
    40    19    25 1   
    41    20    39 1   
    42    22    41 1   
    43    23    41 1   
    44    24    41 1   
@<TRIPOS>SUBSTRUCTURE
     1 TKT         1 TEMP              0 ****  ****    0 ROOT
