@<TRIPOS>MOLECULE
TKT
   41    44     1     0     0
SMALL
bcc


@<TRIPOS>ATOM
      1 C12          1.5870    -0.0490     0.3370 cc         1 TKT      -0.218400
      2 O4           0.5980    -2.1580    -0.0280 o          1 TKT      -0.553000
      3 C9           0.4830    -0.9920     0.2860 c          1 TKT       0.690300
      4 C11          1.5160     1.2750     0.7090 cd         1 TKT      -0.036100
      5 O3          -0.6700    -0.4280     0.6320 os         1 TKT      -0.439900
      6 C7          -2.4860     1.1640    -1.2100 c5         1 TKT      -0.100900
      7 C6          -2.7750     1.6930     0.2100 c5         1 TKT      -0.100900
      8 N1          -4.3580    -0.0140    -0.3080 n3         1 TKT      -0.696600
      9 C5          -3.6680     0.5940     0.8300 c5         1 TKT       0.160000
     10 C4          -2.8780    -0.5100     1.5300 c6         1 TKT      -0.074900
     11 C1          -3.2590    -0.1740    -1.2600 c5         1 TKT       0.160000
     12 C2          -2.4220    -1.3680    -0.8060 c6         1 TKT      -0.074900
     13 C3          -1.8780    -1.2140     0.6150 c6         1 TKT       0.165100
     14 C13          5.7070    -0.0960    -0.4180 ca         1 TKT      -0.111000
     15 C15          3.6550     0.8960     0.2220 ca         1 TKT      -0.066200
     16 C16          2.9630    -0.3140     0.0170 ca         1 TKT      -0.050800
     17 C17          3.6790    -1.4330    -0.4210 ca         1 TKT      -0.071000
     18 C18          5.0390    -1.3120    -0.6330 ca         1 TKT      -0.152000
     19 N10          2.7410     1.8300     0.6400 na         1 TKT      -0.162400
     20 C21          5.0250     1.0260     0.0120 ca         1 TKT      -0.143000
     21 H11          0.6650     1.8580     1.0210 h4         1 TKT       0.175000
     22 H81C        -5.1490     1.8250    -1.1110 h1         1 TKT       0.031033
     23 H82C        -5.8750     0.3270    -1.6980 h1         1 TKT       0.031033
     24 H83C        -6.2230     0.8910    -0.0670 h1         1 TKT       0.031033
     25 H10          2.9480     2.7900     0.8650 hn         1 TKT       0.301700
     26 H3          -1.6470    -2.1990     1.0260 h1         1 TKT       0.063700
     27 H71C        -2.8720     1.8500    -1.9640 hc         1 TKT       0.046700
     28 H72C        -1.4230     1.0390    -1.4130 hc         1 TKT       0.046700
     29 H61C        -1.8750     1.8810     0.7930 hc         1 TKT       0.046700
     30 H62C        -3.3200     2.6370     0.1680 hc         1 TKT       0.046700
     31 H1          -3.6540    -0.3860    -2.2560 h1         1 TKT       0.061700
     32 H5          -4.3950     1.0050     1.5350 h1         1 TKT       0.061700
     33 H41C        -2.3610    -0.1250     2.4120 hc         1 TKT       0.059700
     34 H42C        -3.5870    -1.2590     1.8880 hc         1 TKT       0.059700
     35 H21C        -3.0600    -2.2550    -0.8220 hc         1 TKT       0.059700
     36 H22C        -1.6110    -1.5580    -1.5120 hc         1 TKT       0.059700
     37 H13          6.7730    -0.0370    -0.5910 ha         1 TKT       0.130000
     38 H18          5.6030    -2.1710    -0.9710 ha         1 TKT       0.132000
     39 H21          5.5350     1.9660     0.1800 ha         1 TKT       0.131000
     40 H17          3.1800    -2.3770    -0.5930 ha         1 TKT       0.156000
     41 C8          -5.4380     0.8060    -0.8210 c3         1 TKT       0.146100
@<TRIPOS>BOND
     1     1     3 1   
     2     1     4 2   
     3     1    16 1   
     4     2     3 2   
     5     3     5 1   
     6     4    19 1   
     7     4    21 1   
     8     5    13 1   
     9     6     7 1   
    10     6    11 1   
    11     6    27 1   
    12     6    28 1   
    13     7     9 1   
    14     7    29 1   
    15     7    30 1   
    16     8     9 1   
    17     8    11 1   
    18     8    41 1   
    19     9    10 1   
    20     9    32 1   
    21    10    13 1   
    22    10    33 1   
    23    10    34 1   
    24    11    12 1   
    25    11    31 1   
    26    12    13 1   
    27    12    35 1   
    28    12    36 1   
    29    13    26 1   
    30    14    18 ar  
    31    14    20 ar  
    32    14    37 1   
    33    15    16 ar  
    34    15    19 1   
    35    15    20 ar  
    36    16    17 ar  
    37    17    18 ar  
    38    17    40 1   
    39    18    38 1   
    40    19    25 1   
    41    20    39 1   
    42    22    41 1   
    43    23    41 1   
    44    24    41 1   
@<TRIPOS>SUBSTRUCTURE
     1 TKT         1 TEMP              0 ****  ****    0 ROOT
