@<TRIPOS>MOLECULE
TKV
   70    71     1     0     0
SMALL
abcg2


@<TRIPOS>ATOM
      1 C01        -24.0970    34.9000    -6.1480 c3         1 TKV      -0.084600
      2 C02        -22.7820    35.1370    -6.8990 c3         1 TKV      -0.021700
      3 C03        -22.8120    36.5780    -7.4290 c3         1 TKV       0.182600
      4 C05        -20.6810    37.6200    -7.4070 c          1 TKV       0.647100
      5 C07        -18.3890    38.3710    -7.5170 c3         1 TKV       0.055700
      6 C08        -17.1420    38.1430    -8.3710 c3         1 TKV      -0.088400
      7 C09        -16.6390    36.6970    -8.4100 c3         1 TKV      -0.059700
      8 C10        -15.4570    36.5990    -9.3690 c3         1 TKV      -0.091600
      9 C11        -16.2540    36.1860    -7.0260 c3         1 TKV      -0.091600
     10 C12        -18.7210    39.8640    -7.4950 c          1 TKV       0.596100
     11 C14        -18.5310    41.8990    -6.1140 c3         1 TKV       0.113700
     12 C15        -19.3290    42.0680    -4.8240 c3         1 TKV      -0.076400
     13 C16        -20.6510    41.3190    -4.8620 c5         1 TKV      -0.158700
     14 C17        -21.4550    41.4480    -3.5800 c          1 TKV       0.565000
     15 C19        -22.9950    41.3440    -5.3470 c5         1 TKV       0.101000
     16 C20        -21.6450    41.7460    -5.9400 c5         1 TKV      -0.089400
     17 C22        -17.2230    42.6850    -6.0900 c3         1 TKV       0.351300
     18 C26        -22.7270    34.1600    -8.0750 c3         1 TKV      -0.084600
     19 C27        -21.5790    34.9850    -5.9730 ca         1 TKV      -0.068300
     20 C28        -21.6050    35.5500    -4.6980 ca         1 TKV      -0.087000
     21 C29        -20.4930    35.4790    -3.8790 ca         1 TKV       0.125000
     22 C31        -19.3260    34.8530    -4.2850 ca         1 TKV      -0.104000
     23 C32        -19.2990    34.2880    -5.5490 ca         1 TKV      -0.109000
     24 C33        -20.4070    34.3550    -6.3830 ca         1 TKV      -0.103000
     25 N06        -19.4970    37.6240    -8.0470 ns         1 TKV      -0.484900
     26 N13        -18.2930    40.5060    -6.3970 ns         1 TKV      -0.482900
     27 N18        -22.7540    41.4810    -3.9250 ns         1 TKV      -0.514900
     28 O04        -21.5930    36.9060    -8.0860 os         1 TKV      -0.456100
     29 O21        -21.0090    41.4890    -2.4440 o          1 TKV      -0.563000
     30 O24        -19.3000    40.3980    -8.4260 o          1 TKV      -0.600100
     31 O25        -20.8930    38.2020    -6.3670 o          1 TKV      -0.551000
     32 CL3        -20.5600    36.2060    -2.3020 cl         1 TKV      -0.202000
     33 S1         -16.0390    42.0280    -4.8250 sh         1 TKV      -0.541800
     34 H1         -24.2660    35.6260    -5.3530 hc         1 TKV       0.040533
     35 H2         -24.9430    34.9710    -6.8340 hc         1 TKV       0.040533
     36 H3         -24.1130    33.9040    -5.7040 hc         1 TKV       0.040533
     37 H4         -23.0190    37.2870    -6.6240 h1         1 TKV       0.065700
     38 H5         -23.6020    36.6770    -8.1770 h1         1 TKV       0.065700
     39 H6         -18.1880    38.0360    -6.4950 h1         1 TKV       0.071700
     40 H7         -16.3430    38.7830    -7.9810 hc         1 TKV       0.063700
     41 H8         -17.3450    38.4900    -9.3890 hc         1 TKV       0.063700
     42 H9         -17.4360    36.0550    -8.8000 hc         1 TKV       0.043700
     43 H10        -15.1000    35.5720    -9.4510 hc         1 TKV       0.036033
     44 H11        -15.7260    36.9380   -10.3710 hc         1 TKV       0.036033
     45 H12        -14.6200    37.2130    -9.0240 hc         1 TKV       0.036033
     46 H13        -17.1030    36.1670    -6.3410 hc         1 TKV       0.036033
     47 H14        -15.8670    35.1670    -7.0840 hc         1 TKV       0.036033
     48 H15        -15.4770    36.8130    -6.5820 hc         1 TKV       0.036033
     49 H16        -19.1110    42.3050    -6.9450 h1         1 TKV       0.097700
     50 H17        -18.7410    41.7090    -3.9750 hc         1 TKV       0.059700
     51 H18        -19.5050    43.1350    -4.6590 hc         1 TKV       0.059700
     52 H19        -20.4540    40.2470    -4.9880 hc         1 TKV       0.105700
     53 H20        -23.8120    41.9880    -5.6710 h1         1 TKV       0.045700
     54 H21        -23.2490    40.3130    -5.6080 h1         1 TKV       0.045700
     55 H22        -21.4580    41.2730    -6.9020 hc         1 TKV       0.062700
     56 H23        -21.6070    42.8300    -6.0800 hc         1 TKV       0.062700
     57 H24        -17.4360    43.7220    -5.8080 h2         1 TKV       0.046700
     58 H25        -22.6920    33.1280    -7.7240 hc         1 TKV       0.040533
     59 H26        -23.6250    34.2710    -8.6850 hc         1 TKV       0.040533
     60 H27        -21.8700    34.3230    -8.7280 hc         1 TKV       0.040533
     61 H28        -22.4870    36.0610    -4.3360 ha         1 TKV       0.129000
     62 H29        -18.4640    34.8060    -3.6340 ha         1 TKV       0.129000
     63 H30        -18.3990    33.7940    -5.8930 ha         1 TKV       0.115000
     64 H31        -20.3410    33.9040    -7.3620 ha         1 TKV       0.117000
     65 H32        -19.4090    37.1610    -8.9370 hn         1 TKV       0.338500
     66 H33        -17.8680    39.9620    -5.6600 hn         1 TKV       0.327500
     67 H34        -23.4910    41.4290    -3.2390 hn         1 TKV       0.324500
     68 H36        -16.4140    42.8090    -3.8060 hs         1 TKV       0.230800
     69 O23        -16.6340    42.5750    -7.3390 oh         1 TKV      -0.612000
     70 H35        -15.8830    43.1770    -7.3850 ho         1 TKV       0.460000
@<TRIPOS>BOND
     1     1     2 1   
     2     1    34 1   
     3     1    35 1   
     4     1    36 1   
     5     2     3 1   
     6     2    18 1   
     7     2    19 1   
     8     3    28 1   
     9     3    37 1   
    10     3    38 1   
    11     4    25 1   
    12     4    28 1   
    13     4    31 2   
    14     5     6 1   
    15     5    10 1   
    16     5    25 1   
    17     5    39 1   
    18     6     7 1   
    19     6    40 1   
    20     6    41 1   
    21     7     8 1   
    22     7     9 1   
    23     7    42 1   
    24     8    43 1   
    25     8    44 1   
    26     8    45 1   
    27     9    46 1   
    28     9    47 1   
    29     9    48 1   
    30    10    26 1   
    31    10    30 2   
    32    11    12 1   
    33    11    17 1   
    34    11    26 1   
    35    11    49 1   
    36    12    13 1   
    37    12    50 1   
    38    12    51 1   
    39    13    14 1   
    40    13    16 1   
    41    13    52 1   
    42    14    27 1   
    43    14    29 2   
    44    15    16 1   
    45    15    27 1   
    46    15    53 1   
    47    15    54 1   
    48    16    55 1   
    49    16    56 1   
    50    17    33 1   
    51    17    57 1   
    52    17    69 1   
    53    18    58 1   
    54    18    59 1   
    55    18    60 1   
    56    19    20 ar  
    57    19    24 ar  
    58    20    21 ar  
    59    20    61 1   
    60    21    22 ar  
    61    21    32 1   
    62    22    23 ar  
    63    22    62 1   
    64    23    24 ar  
    65    23    63 1   
    66    24    64 1   
    67    25    65 1   
    68    26    66 1   
    69    27    67 1   
    70    33    68 1   
    71    69    70 1   
@<TRIPOS>SUBSTRUCTURE
     1 TKV         1 TEMP              0 ****  ****    0 ROOT
