@<TRIPOS>MOLECULE
TKV
   70    71     1     0     0
SMALL
No Charge or Current Charge


@<TRIPOS>ATOM
      1 C01        -23.6650    33.1690    -7.3800 c3         1 TKV      -0.084600
      2 C02        -22.6470    34.2790    -7.7630 c3         1 TKV      -0.021700
      3 C03        -23.0960    35.6170    -7.0870 c3         1 TKV       0.182600
      4 C05        -21.2210    37.0640    -6.5770 c          1 TKV       0.647100
      5 C07        -19.2500    38.6480    -6.5780 c3         1 TKV       0.055700
      6 C08        -17.9240    37.9570    -7.0100 c3         1 TKV      -0.088400
      7 C09        -17.7250    36.4960    -6.5180 c3         1 TKV      -0.059700
      8 C10        -16.4970    35.8510    -7.2000 c3         1 TKV      -0.091600
      9 C11        -17.6070    36.3940    -4.9790 c3         1 TKV      -0.091600
     10 C12        -19.2380    40.1590    -6.9530 c          1 TKV       0.596100
     11 C14        -18.1660    42.3810    -6.3740 c3         1 TKV       0.113700
     12 C15        -18.6420    43.1780    -5.1310 c3         1 TKV      -0.076400
     13 C16        -20.1490    43.0200    -4.7780 c5         1 TKV      -0.158700
     14 C17        -20.5830    43.8160    -3.5400 c          1 TKV       0.565000
     15 C19        -22.4360    43.7180    -5.0340 c5         1 TKV       0.101000
     16 C20        -21.1410    43.5190    -5.8670 c5         1 TKV      -0.089400
     17 C22        -16.6750    42.6710    -6.7370 c3         1 TKV       0.351300
     18 C26        -22.7170    34.4580    -9.3090 c3         1 TKV      -0.084600
     19 C27        -21.2410    33.8390    -7.2670 ca         1 TKV      -0.068300
     20 C28        -21.0230    33.6360    -5.8830 ca         1 TKV      -0.087000
     21 C29        -19.7720    33.2230    -5.3990 ca         1 TKV       0.125000
     22 C31        -18.7140    32.9860    -6.2850 ca         1 TKV      -0.104000
     23 C32        -18.9080    33.1740    -7.6610 ca         1 TKV      -0.109000
     24 C33        -20.1560    33.6000    -8.1490 ca         1 TKV      -0.103000
     25 N06        -20.4200    37.9820    -7.1910 ns         1 TKV      -0.484900
     26 N13        -18.4030    40.9380    -6.1800 ns         1 TKV      -0.482900
     27 N18        -21.8730    44.2040    -3.7770 ns         1 TKV      -0.514900
     28 O04        -22.1920    36.6830    -7.4540 os         1 TKV      -0.456100
     29 O21        -19.9120    44.2510    -2.6190 o          1 TKV      -0.563000
     30 O24        -19.9210    40.6310    -7.8540 o          1 TKV      -0.600100
     31 O25        -21.0960    36.6810    -5.4260 o          1 TKV      -0.551000
     32 Cl3        -19.5320    32.9960    -3.6710 cl         1 TKV      -0.202000
     33 S1         -15.4640    41.9370    -5.5580 sh         1 TKV      -0.541800
     34 H1         -23.7400    33.0460    -6.2930 hc         1 TKV       0.040533
     35 H2         -24.6690    33.4090    -7.7540 hc         1 TKV       0.040533
     36 H3         -23.3670    32.2050    -7.8090 hc         1 TKV       0.040533
     37 H4         -23.1760    35.4990    -5.9990 h1         1 TKV       0.065700
     38 H5         -24.1050    35.8610    -7.4470 h1         1 TKV       0.065700
     39 H6         -19.3460    38.6040    -5.4860 h1         1 TKV       0.071700
     40 H7         -17.0740    38.5550    -6.6590 hc         1 TKV       0.063700
     41 H8         -17.8740    37.9750    -8.1060 hc         1 TKV       0.063700
     42 H9         -18.6010    35.9130    -6.8230 hc         1 TKV       0.043700
     43 H10        -16.3690    34.8120    -6.8720 hc         1 TKV       0.036033
     44 H11        -16.6160    35.8470    -8.2900 hc         1 TKV       0.036033
     45 H12        -15.5800    36.4010    -6.9560 hc         1 TKV       0.036033
     46 H13        -18.5160    36.7480    -4.4830 hc         1 TKV       0.036033
     47 H14        -17.4500    35.3530    -4.6730 hc         1 TKV       0.036033
     48 H15        -16.7610    36.9880    -4.6120 hc         1 TKV       0.036033
     49 H16        -18.7640    42.7280    -7.2270 h1         1 TKV       0.097700
     50 H17        -18.0400    42.8730    -4.2660 hc         1 TKV       0.059700
     51 H18        -18.4210    44.2410    -5.2930 hc         1 TKV       0.059700
     52 H19        -20.3730    41.9680    -4.5650 hc         1 TKV       0.105700
     53 H20        -23.1210    44.4380    -5.5030 h1         1 TKV       0.045700
     54 H21        -22.9730    42.7700    -4.8910 h1         1 TKV       0.045700
     55 H22        -21.2770    42.8100    -6.6910 hc         1 TKV       0.062700
     56 H23        -20.8110    44.4710    -6.3010 hc         1 TKV       0.062700
     57 H24        -16.5050    43.7550    -6.7060 h2         1 TKV       0.046700
     58 H25        -22.4980    33.5160    -9.8270 hc         1 TKV       0.040533
     59 H26        -23.7190    34.7780    -9.6200 hc         1 TKV       0.040533
     60 H27        -22.0060    35.2160    -9.6580 hc         1 TKV       0.040533
     61 H28        -21.8220    33.8070    -5.1680 ha         1 TKV       0.129000
     62 H29        -17.7480    32.6620    -5.9070 ha         1 TKV       0.129000
     63 H30        -18.0880    32.9950    -8.3540 ha         1 TKV       0.115000
     64 H31        -20.2560    33.7320    -9.2220 ha         1 TKV       0.117000
     65 H32        -20.6850    38.2350    -8.1350 hn         1 TKV       0.338500
     66 H33        -17.8560    40.4600    -5.4740 hn         1 TKV       0.327500
     67 H34        -22.3310    44.8190    -3.1140 hn         1 TKV       0.324500
     68 H36        -15.8870    42.6380    -4.4760 hs         1 TKV       0.230800
     69 O23        -16.4110    42.2260    -8.0620 oh         1 TKV      -0.612000
     70 H35        -15.4350    42.2270    -8.1490 ho         1 TKV       0.460000
@<TRIPOS>BOND
     1     1     2 1   
     2     1    34 1   
     3     1    35 1   
     4     1    36 1   
     5     2     3 1   
     6     2    18 1   
     7     2    19 1   
     8     3    28 1   
     9     3    37 1   
    10     3    38 1   
    11     4    25 1   
    12     4    28 1   
    13     4    31 2   
    14     5     6 1   
    15     5    10 1   
    16     5    25 1   
    17     5    39 1   
    18     6     7 1   
    19     6    40 1   
    20     6    41 1   
    21     7     8 1   
    22     7     9 1   
    23     7    42 1   
    24     8    43 1   
    25     8    44 1   
    26     8    45 1   
    27     9    46 1   
    28     9    47 1   
    29     9    48 1   
    30    10    26 1   
    31    10    30 2   
    32    11    12 1   
    33    11    17 1   
    34    11    26 1   
    35    11    49 1   
    36    12    13 1   
    37    12    50 1   
    38    12    51 1   
    39    13    14 1   
    40    13    16 1   
    41    13    52 1   
    42    14    27 1   
    43    14    29 2   
    44    15    16 1   
    45    15    27 1   
    46    15    53 1   
    47    15    54 1   
    48    16    55 1   
    49    16    56 1   
    50    17    33 1   
    51    17    57 1   
    52    17    69 1   
    53    18    58 1   
    54    18    59 1   
    55    18    60 1   
    56    19    20 ar  
    57    19    24 ar  
    58    20    21 ar  
    59    20    61 1   
    60    21    22 ar  
    61    21    32 1   
    62    22    23 ar  
    63    22    62 1   
    64    23    24 ar  
    65    23    63 1   
    66    24    64 1   
    67    25    65 1   
    68    26    66 1   
    69    27    67 1   
    70    33    68 1   
    71    69    70 1   
@<TRIPOS>SUBSTRUCTURE
     1 TKV         1 TEMP              0 ****  ****    0 ROOT
