@<TRIPOS>MOLECULE
TKX
   29    30     1     0     0
SMALL
abcg2


@<TRIPOS>ATOM
      1 C10          4.5500    16.7560   -16.6690 ca         1 TKX      -0.154000
      2 C13          3.5430    18.5140   -17.9820 ca         1 TKX       0.326900
      3 C15          2.2510    17.4470   -16.4020 ca         1 TKX       0.232500
      4 C20          2.7910    12.6760   -11.1450 ca         1 TKX       0.174000
      5 C04          2.4790    14.0300   -11.2990 ca         1 TKX      -0.157200
      6 C05          2.9010    14.7430   -12.4100 ca         1 TKX      -0.024000
      7 C06          3.6670    14.1210   -13.3870 ca         1 TKX      -0.100300
      8 C07          4.1730    14.9020   -14.5640 c3         1 TKX       0.213900
      9 C09          3.3200    16.6100   -16.0200 ca         1 TKX       0.129100
     10 C11          4.6440    17.7200   -17.6510 ca         1 TKX      -0.015900
     11 C16          0.9320    17.3320   -15.7390 c          1 TKX       0.477400
     12 C18          3.9770    12.7720   -13.2400 ca         1 TKX      -0.053000
     13 C19          3.5410    12.0550   -12.1340 ca         1 TKX      -0.110000
     14 N14          2.3850    18.3670   -17.3630 nb         1 TKX      -0.586000
     15 O01          1.9420    14.5840    -9.1200 o          1 TKX      -0.374500
     16 O03          0.8730    15.5700   -10.7180 o          1 TKX      -0.374500
     17 O08          3.0880    15.7090   -15.0520 os         1 TKX      -0.346100
     18 O17         -0.0310    18.0150   -16.0250 o          1 TKX      -0.476100
     19 BR12         6.2850    17.9780   -18.5750 br         1 TKX      -0.073100
     20 CL21         2.2140    11.7140    -9.8230 cl         1 TKX      -0.134000
     21 H1           5.3980    16.1380   -16.4200 ha         1 TKX       0.138000
     22 H2           3.6150    19.2710   -18.7540 h4         1 TKX       0.047100
     23 H3           2.6350    15.7860   -12.4950 ha         1 TKX       0.158000
     24 H4           4.5220    14.2320   -15.3520 h1         1 TKX       0.057200
     25 H5           4.9980    15.5550   -14.2650 h1         1 TKX       0.057200
     26 H6           0.8660    16.5720   -14.9470 h4         1 TKX       0.016200
     27 H7           4.5590    12.2670   -14.0000 ha         1 TKX       0.130000
     28 H8           3.7670    11.0020   -12.0410 ha         1 TKX       0.145000
     29 N02          1.7030    14.7750   -10.3010 no         1 TKX       0.676200
@<TRIPOS>BOND
     1     1     9 ar  
     2     1    10 ar  
     3     1    21 1   
     4     2    10 ar  
     5     2    14 ar  
     6     2    22 1   
     7     3     9 ar  
     8     3    11 1   
     9     3    14 ar  
    10     4     5 ar  
    11     4    13 ar  
    12     4    20 1   
    13     5     6 ar  
    14     5    29 1   
    15     6     7 ar  
    16     6    23 1   
    17     7     8 1   
    18     7    12 ar  
    19     8    17 1   
    20     8    24 1   
    21     8    25 1   
    22     9    17 1   
    23    10    19 1   
    24    11    18 2   
    25    11    26 1   
    26    12    13 ar  
    27    12    27 1   
    28    13    28 1   
    29    15    29 1   
    30    16    29 1   
@<TRIPOS>SUBSTRUCTURE
     1 TKX         1 TEMP              0 ****  ****    0 ROOT
