@<TRIPOS>MOLECULE
TKX
   29    30     1     0     0
SMALL
No Charge or Current Charge


@<TRIPOS>ATOM
      1 C10          4.6150    16.9830   -16.5640 ca         1 TKX      -0.154000
      2 C13          3.5640    18.4120   -18.2220 ca         1 TKX       0.326900
      3 C15          2.1930    17.2310   -16.7390 ca         1 TKX       0.232500
      4 C20          2.5530    12.6310   -11.2250 ca         1 TKX       0.174000
      5 C04          2.6530    14.0270   -11.0270 ca         1 TKX      -0.157200
      6 C05          3.1920    14.8370   -12.0520 ca         1 TKX      -0.024000
      7 C06          3.6440    14.2630   -13.2560 ca         1 TKX      -0.100300
      8 C07          4.2250    15.1470   -14.3510 c3         1 TKX       0.213900
      9 C09          3.3220    16.6490   -16.0990 ca         1 TKX       0.129100
     10 C11          4.7290    17.8780   -17.6410 ca         1 TKX      -0.015900
     11 C16          0.7970    16.8810   -16.2500 c          1 TKX       0.477400
     12 C18          3.5460    12.8720   -13.4400 ca         1 TKX      -0.053000
     13 C19          3.0010    12.0630   -12.4290 ca         1 TKX      -0.110000
     14 N14          2.3190    18.1020   -17.7880 nb         1 TKX      -0.586000
     15 O01          2.6080    14.1970    -8.6980 o          1 TKX      -0.374500
     16 O03          1.5960    15.7430    -9.8580 o          1 TKX      -0.374500
     17 O08          3.1320    15.7750   -15.0430 os         1 TKX      -0.346100
     18 O17         -0.2420    17.3290   -16.7350 o          1 TKX      -0.476100
     19 Br12         6.4560    18.3630   -18.3090 br         1 TKX      -0.073100
     20 Cl21         1.8280    11.5590   -10.0240 cl         1 TKX      -0.134000
     21 H1           5.5150    16.5720   -16.1170 ha         1 TKX       0.138000
     22 H2           3.6290    19.1080   -19.0580 h4         1 TKX       0.047100
     23 H3           3.2670    15.9150   -11.9120 ha         1 TKX       0.158000
     24 H4           4.8230    14.5370   -15.0410 h1         1 TKX       0.057200
     25 H5           4.8840    15.9000   -13.8990 h1         1 TKX       0.057200
     26 H6           0.7420    16.1710   -15.3960 h4         1 TKX       0.016200
     27 H7           3.8850    12.4160   -14.3690 ha         1 TKX       0.130000
     28 H8           2.9170    10.9900   -12.5830 ha         1 TKX       0.145000
     29 N02          2.1920    14.6620    -9.7660 no         1 TKX       0.676200
@<TRIPOS>BOND
     1     1     9 ar  
     2     1    10 ar  
     3     1    21 1   
     4     2    10 ar  
     5     2    14 ar  
     6     2    22 1   
     7     3     9 ar  
     8     3    11 1   
     9     3    14 ar  
    10     4     5 ar  
    11     4    13 ar  
    12     4    20 1   
    13     5     6 ar  
    14     5    29 1   
    15     6     7 ar  
    16     6    23 1   
    17     7     8 1   
    18     7    12 ar  
    19     8    17 1   
    20     8    24 1   
    21     8    25 1   
    22     9    17 1   
    23    10    19 1   
    24    11    18 2   
    25    11    26 1   
    26    12    13 ar  
    27    12    27 1   
    28    13    28 1   
    29    15    29 1   
    30    16    29 1   
@<TRIPOS>SUBSTRUCTURE
     1 TKX         1 TEMP              0 ****  ****    0 ROOT
