@<TRIPOS>MOLECULE
TKY
  164   171     1     0     0
SMALL
No Charge or Current Charge


@<TRIPOS>ATOM
      1 C48        -25.5740   -22.3250    21.9650 c          1 TKY       0.647100
      2 C43        -20.9410   -21.6140    20.3050 c3         1 TKY       0.154600
      3 C40        -23.8200   -23.0650    18.3970 c3         1 TKY       0.130600
      4 C36        -27.1470   -22.1150    15.7010 c3         1 TKY       0.130600
      5 C33        -28.7490   -23.6280    18.1400 c3         1 TKY       0.133600
      6 C37        -25.8400   -21.2770    15.7480 c3         1 TKY       0.165600
      7 C34        -29.1250   -22.5730    17.0710 c3         1 TKY       0.163600
      8 C7         -26.1940   -27.8600    24.1370 c          1 TKY       0.601100
      9 C6         -27.1930   -27.0180    25.0110 c3         1 TKY       0.047700
     10 C13        -27.3360   -25.6410    18.3230 ca         1 TKY       0.155100
     11 N5         -27.8430   -27.9330    25.9830 ns         1 TKY      -0.491900
     12 C18        -24.8970   -28.1550    21.9620 c6         1 TKY       0.033700
     13 C16        -26.0950   -27.6900    19.8020 ca         1 TKY      -0.117300
     14 C19        -23.6560   -27.2200    21.8090 c          1 TKY       0.602100
     15 C26        -19.8780   -28.2810    19.7900 ca         1 TKY      -0.059300
     16 C1         -30.2730   -30.3490    26.5970 c3         1 TKY      -0.086100
     17 C10        -27.0140   -26.7440    21.9960 c6         1 TKY       0.156300
     18 C11        -26.8470   -26.7070    20.4680 ca         1 TKY      -0.060300
     19 C12        -27.4740   -25.6900    19.7260 ca         1 TKY      -0.178000
     20 C14        -26.5720   -26.6200    17.6680 ca         1 TKY      -0.129000
     21 C15        -25.9560   -27.6480    18.4020 ca         1 TKY      -0.061000
     22 C17        -25.4220   -28.7680    20.6350 c6         1 TKY      -0.032100
     23 C2         -29.6370   -29.1070    27.2570 c3         1 TKY       0.102500
     24 C22        -21.7520   -26.5680    20.2570 c6         1 TKY       0.168000
     25 C23        -21.7090   -26.2920    18.7370 c6         1 TKY      -0.096400
     26 C24        -21.5410   -27.5990    17.9320 c6         1 TKY      -0.071400
     27 C25        -20.2100   -28.2930    18.2920 c6         1 TKY      -0.035100
     28 C27        -20.5750   -27.4510    20.7080 ca         1 TKY      -0.110300
     29 C28        -20.1780   -27.4390    22.0610 ca         1 TKY      -0.090000
     30 C29        -19.1200   -28.2470    22.5060 ca         1 TKY      -0.117000
     31 C3         -29.2050   -28.0630    26.1670 c          1 TKY       0.561100
     32 C30        -18.4410   -29.0740    21.5990 ca         1 TKY      -0.099000
     33 C31        -18.8160   -29.0850    20.2470 ca         1 TKY      -0.119000
     34 C39        -25.0510   -22.3250    17.8340 c3         1 TKY       0.165600
     35 C42        -21.6470   -22.6430    19.3870 c3         1 TKY       0.130600
     36 C45        -21.9120   -22.3980    22.4610 c3         1 TKY       0.138600
     37 C46        -23.3000   -23.0650    22.2660 c3         1 TKY       0.159600
     38 C51        -27.7730   -21.1880    21.4450 c6         1 TKY       0.095000
     39 C52        -27.8100   -20.3740    20.1250 c6         1 TKY      -0.110400
     40 C53        -27.1990   -18.9560    20.3040 c6         1 TKY      -0.082400
     41 C54        -25.7900   -19.0360    20.9670 c6         1 TKY       0.068300
     42 C55        -25.8910   -19.8200    22.2940 c6         1 TKY       0.086000
     43 C57        -23.7870   -17.4520    21.1410 cc         1 TKY       0.322000
     44 C58        -23.6580   -16.1340    21.4380 cd         1 TKY      -0.366600
     45 C59        -24.9730   -15.6500    21.6410 cd         1 TKY       0.367500
     46 C61        -25.3850   -14.2770    21.9650 ca         1 TKY      -0.155500
     47 C62        -26.0440   -14.0030    23.1800 ca         1 TKY      -0.059000
     48 C63        -26.4530   -12.6930    23.4850 ca         1 TKY      -0.157000
     49 C64        -26.2230   -11.6510    22.5660 ca         1 TKY       0.131100
     50 C65        -25.5740   -11.9220    21.3520 ca         1 TKY      -0.157000
     51 C66        -25.1640   -13.2310    21.0450 ca         1 TKY      -0.059000
     52 C68        -27.6660   -10.0470    23.6610 ca         1 TKY       0.047100
     53 C69        -27.4470    -9.1950    24.7590 ca         1 TKY      -0.068000
     54 C70        -28.5150    -8.8610    25.6130 ca         1 TKY      -0.158000
     55 C71        -29.7980    -9.3730    25.3630 ca         1 TKY       0.194000
     56 C72        -30.0280   -10.2130    24.2640 ca         1 TKY      -0.189000
     57 C73        -28.9640   -10.5480    23.4110 ca         1 TKY       0.179000
     58 C76        -22.3630   -15.4420    21.5460 c          1 TKY       0.662700
     59 C80        -26.5360   -25.7750    25.7320 c3         1 TKY      -0.042000
     60 C81        -25.3220   -26.2070    26.6010 c3         1 TKY      -0.090433
     61 C82        -26.0510   -24.7240    24.7010 c3         1 TKY      -0.090433
     62 C83        -27.5750   -25.0760    26.6550 c3         1 TKY      -0.090433
     63 F74        -29.2050   -11.3430    22.3430 f          1 TKY      -0.155000
     64 F75        -30.8210    -9.0490    26.1840 f          1 TKY      -0.169000
     65 N21        -23.0130   -27.2340    20.5890 ns         1 TKY      -0.503900
     66 N50        -26.4030   -21.1880    22.0120 n          1 TKY      -0.382800
     67 N56        -25.1650   -17.7100    21.1980 na         1 TKY       0.089800
     68 N60        -25.8960   -16.5860    21.5300 nc         1 TKY      -0.528800
     69 N78        -22.4010   -14.1600    21.9430 nt         1 TKY      -0.600000
     70 N84        -30.5890   -28.5670    28.2780 n7         1 TKY      -0.852400
     71 N9         -26.0090   -27.5400    22.7670 n          1 TKY      -0.386800
     72 O20        -23.2520   -26.5270    22.7330 o          1 TKY      -0.599100
     73 O32        -27.9190   -24.6510    17.5560 os         1 TKY      -0.347100
     74 O35        -27.9850   -21.7240    16.8090 os         1 TKY      -0.468000
     75 O38        -24.7930   -21.9920    16.4500 os         1 TKY      -0.465000
     76 O4         -30.0110   -27.3940    25.5290 o          1 TKY      -0.621100
     77 O41        -22.9040   -22.0970    18.9430 os         1 TKY      -0.454000
     78 O44        -21.7170   -21.3240    21.5000 os         1 TKY      -0.470000
     79 O47        -24.3030   -22.0400    22.3720 os         1 TKY      -0.462100
     80 O49        -25.9470   -23.4200    21.5770 o          1 TKY      -0.532000
     81 O67        -26.6040   -10.3550    22.8380 os         1 TKY      -0.238200
     82 O77        -21.2830   -15.9620    21.3220 o          1 TKY      -0.662100
     83 O8         -25.5620   -28.7850    24.6410 o          1 TKY      -0.622100
     84 H1         -19.9510   -22.0020    20.5780 h1         1 TKY       0.056700
     85 H2         -20.7800   -20.6920    19.7310 h1         1 TKY       0.056700
     86 H3         -23.3490   -23.6530    17.5980 h1         1 TKY       0.040700
     87 H4         -24.1520   -23.7580    19.1800 h1         1 TKY       0.040700
     88 H5         -27.6650   -21.9140    14.7540 h1         1 TKY       0.036200
     89 H6         -26.9000   -23.1830    15.7280 h1         1 TKY       0.036200
     90 H7         -28.2260   -23.1200    18.9590 h1         1 TKY       0.046200
     91 H8         -29.6680   -24.0720    18.5440 h1         1 TKY       0.046200
     92 H9         -25.5180   -21.0820    14.7170 h1         1 TKY       0.050700
     93 H10        -26.0370   -20.3040    16.2190 h1         1 TKY       0.050700
     94 H11        -29.9460   -21.9660    17.4730 h1         1 TKY       0.050200
     95 H12        -29.4900   -23.0630    16.1580 h1         1 TKY       0.050200
     96 H13        -27.9750   -26.6360    24.3470 h1         1 TKY       0.085700
     97 H14        -27.2450   -28.5440    26.5290 hn         1 TKY       0.331500
     98 H15        -24.4860   -29.0070    22.5190 h1         1 TKY       0.074700
     99 H16        -30.5190   -31.1060    27.3510 hc         1 TKY       0.047033
    100 H17        -31.1930   -30.0820    26.0620 hc         1 TKY       0.047033
    101 H18        -29.5780   -30.7990    25.8790 hc         1 TKY       0.047033
    102 H19        -27.0060   -25.7100    22.3600 h1         1 TKY       0.060200
    103 H20        -28.0140   -27.1490    22.2050 h1         1 TKY       0.060200
    104 H21        -28.0570   -24.9460    20.2590 ha         1 TKY       0.119000
    105 H22        -26.4620   -26.5830    16.5880 ha         1 TKY       0.132000
    106 H23        -25.3700   -28.4030    17.8830 ha         1 TKY       0.114000
    107 H24        -26.1590   -29.5500    20.8670 hc         1 TKY       0.058700
    108 H25        -24.6200   -29.2720    20.0800 hc         1 TKY       0.058700
    109 H26        -28.7190   -29.4430    27.7610 h1         1 TKY       0.063700
    110 H27        -21.7110   -25.6110    20.7980 h1         1 TKY       0.076700
    111 H28        -20.8760   -25.6120    18.5100 hc         1 TKY       0.058200
    112 H29        -22.6270   -25.7760    18.4240 hc         1 TKY       0.058200
    113 H30        -21.5690   -27.3850    16.8540 hc         1 TKY       0.041700
    114 H31        -22.3800   -28.2790    18.1310 hc         1 TKY       0.041700
    115 H32        -20.2280   -29.3270    17.9200 hc         1 TKY       0.050200
    116 H33        -19.3930   -27.7930    17.7540 hc         1 TKY       0.050200
    117 H34        -20.6890   -26.7980    22.7760 ha         1 TKY       0.122000
    118 H35        -18.8260   -28.2310    23.5530 ha         1 TKY       0.116000
    119 H36        -17.6180   -29.6980    21.9420 ha         1 TKY       0.114000
    120 H37        -18.2740   -29.7170    19.5470 ha         1 TKY       0.111000
    121 H38        -25.2460   -21.4260    18.4310 h1         1 TKY       0.061700
    122 H39        -25.9150   -22.9930    17.9220 h1         1 TKY       0.061700
    123 H40        -21.0040   -22.8530    18.5220 h1         1 TKY       0.023700
    124 H41        -21.7830   -23.5860    19.9250 h1         1 TKY       0.023700
    125 H42        -21.1220   -23.1560    22.3800 h1         1 TKY       0.050200
    126 H43        -21.8720   -21.9930    23.4800 h1         1 TKY       0.050200
    127 H44        -23.3490   -23.5670    21.2950 h1         1 TKY       0.066700
    128 H45        -23.4480   -23.8280    23.0400 h1         1 TKY       0.066700
    129 H46        -28.4620   -20.7380    22.1750 h1         1 TKY       0.065200
    130 H47        -28.1210   -22.2150    21.2620 h1         1 TKY       0.065200
    131 H48        -28.8440   -20.2980    19.7610 hc         1 TKY       0.061200
    132 H49        -27.2510   -20.9160    19.3530 hc         1 TKY       0.061200
    133 H50        -27.1290   -18.4530    19.3300 hc         1 TKY       0.062200
    134 H51        -27.8750   -18.3510    20.9240 hc         1 TKY       0.062200
    135 H52        -25.1340   -19.6000    20.2890 h1         1 TKY       0.081700
    136 H53        -24.9150   -19.8390    22.7970 h1         1 TKY       0.074200
    137 H54        -26.5850   -19.3050    22.9730 h1         1 TKY       0.074200
    138 H55        -26.2310   -14.8060    23.8910 ha         1 TKY       0.128500
    139 H56        -26.9450   -12.4950    24.4340 ha         1 TKY       0.128500
    140 H57        -25.3960   -11.1180    20.6430 ha         1 TKY       0.128500
    141 H58        -24.6770   -13.4350    20.0930 ha         1 TKY       0.128500
    142 H59        -26.4510    -8.8000    24.9490 ha         1 TKY       0.137000
    143 H60        -28.3500    -8.2070    26.4650 ha         1 TKY       0.141000
    144 H61        -31.0250   -10.5990    24.0720 ha         1 TKY       0.153000
    145 H62        -24.9100   -25.3510    27.1490 hc         1 TKY       0.041144
    146 H63        -25.6090   -26.9660    27.3390 hc         1 TKY       0.041144
    147 H64        -24.5140   -26.6190    25.9840 hc         1 TKY       0.041144
    148 H65        -25.5780   -23.8700    25.2020 hc         1 TKY       0.041144
    149 H66        -25.3120   -25.1480    24.0120 hc         1 TKY       0.041144
    150 H67        -26.8920   -24.3340    24.1150 hc         1 TKY       0.041144
    151 H68        -27.1640   -24.1540    27.0820 hc         1 TKY       0.041144
    152 H69        -28.4820   -24.8130    26.0960 hc         1 TKY       0.041144
    153 H70        -27.8650   -25.7210    27.4930 hc         1 TKY       0.041144
    154 H71        -30.8100   -27.1950    29.8880 h1         1 TKY       0.032367
    155 H72        -29.1630   -27.8290    29.6820 h1         1 TKY       0.032367
    156 H73        -29.7970   -26.6050    28.5550 h1         1 TKY       0.032367
    157 H74        -23.4310   -27.8120    19.8750 hn         1 TKY       0.315500
    158 H75        -21.5370   -13.6500    22.0410 hn         1 TKY       0.313000
    159 H76        -23.2860   -13.7250    22.1530 hn         1 TKY       0.313000
    160 H77        -21.8600   -18.0670    20.9790 hn         1 TKY       0.497000
    161 H78        -22.9890   -19.3710    21.0390 hn         1 TKY       0.497000
    162 H79        -31.4100   -28.1970    27.7780 hn         1 TKY       0.429000
    163 N79        -22.8240   -18.3790    20.8660 nv         1 TKY      -1.079000
    164 C85        -30.0600   -27.4940    29.1440 c3         1 TKY       0.143100
@<TRIPOS>BOND
     1     1    66 1   
     2     1    79 1   
     3     1    80 2   
     4     2    35 1   
     5     2    78 1   
     6     2    84 1   
     7     2    85 1   
     8     3    34 1   
     9     3    77 1   
    10     3    86 1   
    11     3    87 1   
    12     4     6 1   
    13     4    74 1   
    14     4    88 1   
    15     4    89 1   
    16     5     7 1   
    17     5    73 1   
    18     5    90 1   
    19     5    91 1   
    20     6    75 1   
    21     6    92 1   
    22     6    93 1   
    23     7    74 1   
    24     7    94 1   
    25     7    95 1   
    26     8     9 1   
    27     8    71 1   
    28     8    83 2   
    29     9    11 1   
    30     9    59 1   
    31     9    96 1   
    32    10    19 ar  
    33    10    20 ar  
    34    10    73 1   
    35    11    31 1   
    36    11    97 1   
    37    12    14 1   
    38    12    22 1   
    39    12    71 1   
    40    12    98 1   
    41    13    18 ar  
    42    13    21 ar  
    43    13    22 1   
    44    14    65 1   
    45    14    72 2   
    46    15    27 1   
    47    15    28 ar  
    48    15    33 ar  
    49    16    23 1   
    50    16    99 1   
    51    16   100 1   
    52    16   101 1   
    53    17    18 1   
    54    17    71 1   
    55    17   102 1   
    56    17   103 1   
    57    18    19 ar  
    58    19   104 1   
    59    20    21 ar  
    60    20   105 1   
    61    21   106 1   
    62    22   107 1   
    63    22   108 1   
    64    23    31 1   
    65    23    70 1   
    66    23   109 1   
    67    24    25 1   
    68    24    28 1   
    69    24    65 1   
    70    24   110 1   
    71    25    26 1   
    72    25   111 1   
    73    25   112 1   
    74    26    27 1   
    75    26   113 1   
    76    26   114 1   
    77    27   115 1   
    78    27   116 1   
    79    28    29 ar  
    80    29    30 ar  
    81    29   117 1   
    82    30    32 ar  
    83    30   118 1   
    84    31    76 2   
    85    32    33 ar  
    86    32   119 1   
    87    33   120 1   
    88    34    75 1   
    89    34   121 1   
    90    34   122 1   
    91    35    77 1   
    92    35   123 1   
    93    35   124 1   
    94    36    37 1   
    95    36    78 1   
    96    36   125 1   
    97    36   126 1   
    98    37    79 1   
    99    37   127 1   
   100    37   128 1   
   101    38    39 1   
   102    38    66 1   
   103    38   129 1   
   104    38   130 1   
   105    39    40 1   
   106    39   131 1   
   107    39   132 1   
   108    40    41 1   
   109    40   133 1   
   110    40   134 1   
   111    41    42 1   
   112    41    67 1   
   113    41   135 1   
   114    42    66 1   
   115    42   136 1   
   116    42   137 1   
   117    43    44 2   
   118    43    67 1   
   119    43   163 1   
   120    44    45 1   
   121    44    58 1   
   122    45    46 1   
   123    45    68 2   
   124    46    47 ar  
   125    46    51 ar  
   126    47    48 ar  
   127    47   138 1   
   128    48    49 ar  
   129    48   139 1   
   130    49    50 ar  
   131    49    81 1   
   132    50    51 ar  
   133    50   140 1   
   134    51   141 1   
   135    52    53 ar  
   136    52    57 ar  
   137    52    81 1   
   138    53    54 ar  
   139    53   142 1   
   140    54    55 ar  
   141    54   143 1   
   142    55    56 ar  
   143    55    64 1   
   144    56    57 ar  
   145    56   144 1   
   146    57    63 1   
   147    58    69 1   
   148    58    82 2   
   149    59    60 1   
   150    59    61 1   
   151    59    62 1   
   152    60   145 1   
   153    60   146 1   
   154    60   147 1   
   155    61   148 1   
   156    61   149 1   
   157    61   150 1   
   158    62   151 1   
   159    62   152 1   
   160    62   153 1   
   161    65   157 1   
   162    67    68 1   
   163    69   158 1   
   164    69   159 1   
   165    70   162 1   
   166    70   164 1   
   167   154   164 1   
   168   155   164 1   
   169   156   164 1   
   170   160   163 1   
   171   161   163 1   
@<TRIPOS>SUBSTRUCTURE
     1 TKY         1 TEMP              0 ****  ****    0 ROOT
