@<TRIPOS>MOLECULE
TKY
  164   171     1     0     0
SMALL
abcg2


@<TRIPOS>ATOM
      1 C48        -25.1770   -21.0420    22.9300 c          1 TKY       0.647100
      2 C43        -21.4950   -20.9710    20.3090 c3         1 TKY       0.154600
      3 C40        -23.9130   -23.6550    19.7480 c3         1 TKY       0.130600
      4 C36        -27.0800   -22.1040    16.7950 c3         1 TKY       0.130600
      5 C33        -29.2770   -24.1780    18.2300 c3         1 TKY       0.133600
      6 C37        -25.6470   -22.1090    17.2810 c3         1 TKY       0.165600
      7 C34        -29.2150   -22.7820    17.6530 c3         1 TKY       0.163600
      8 C7         -26.4190   -28.0940    23.2180 c          1 TKY       0.601100
      9 C6         -27.5150   -27.4070    24.0370 c3         1 TKY       0.047700
     10 C13        -27.8800   -26.1080    18.0380 ca         1 TKY       0.155100
     11 N5         -27.4660   -27.9930    25.3570 ns         1 TKY      -0.491900
     12 C18        -25.4830   -29.0110    21.2380 c6         1 TKY       0.033700
     13 C16        -26.5450   -28.3120    19.1110 ca         1 TKY      -0.117300
     14 C19        -24.3400   -27.9940    21.1430 c          1 TKY       0.602100
     15 C26        -19.9820   -29.2830    20.0310 ca         1 TKY      -0.059300
     16 C1         -28.1310   -30.7490    27.0770 c3         1 TKY      -0.086100
     17 C10        -27.8640   -28.2580    21.1740 c6         1 TKY       0.156300
     18 C11        -27.5690   -27.6930    19.8150 ca         1 TKY      -0.060300
     19 C12        -28.2480   -26.6050    19.2870 ca         1 TKY      -0.178000
     20 C14        -26.8550   -26.7290    17.3240 ca         1 TKY      -0.129000
     21 C15        -26.1950   -27.8220    17.8600 ca         1 TKY      -0.061000
     22 C17        -25.8670   -29.4420    19.8150 c6         1 TKY      -0.032100
     23 C2         -28.1920   -29.2420    27.3110 c3         1 TKY       0.102500
     24 C22        -21.9340   -27.7870    20.6590 c6         1 TKY       0.168000
     25 C23        -21.9130   -27.3450    19.1980 c6         1 TKY      -0.096400
     26 C24        -21.6480   -28.5300    18.2850 c6         1 TKY      -0.071400
     27 C25        -20.2650   -29.0990    18.5620 c6         1 TKY      -0.035100
     28 C27        -20.7370   -28.6410    21.0140 ca         1 TKY      -0.110300
     29 C28        -20.4180   -28.8230    22.3600 ca         1 TKY      -0.090000
     30 C29        -19.3600   -29.6290    22.7420 ca         1 TKY      -0.117000
     31 C3         -28.5150   -28.5560    25.9790 c          1 TKY       0.561100
     32 C30        -18.6060   -30.2710    21.7670 ca         1 TKY      -0.099000
     33 C31        -18.9180   -30.0960    20.4300 ca         1 TKY      -0.119000
     34 C39        -25.2970   -23.5950    19.1450 c3         1 TKY       0.165600
     35 C42        -21.9740   -22.3840    20.0710 c3         1 TKY       0.130600
     36 C45        -21.7600   -20.7810    22.6850 c3         1 TKY       0.138600
     37 C46        -22.8810   -21.5570    23.3420 c3         1 TKY       0.159600
     38 C51        -27.2580   -20.1420    22.0740 c6         1 TKY       0.095000
     39 C52        -27.0710   -19.7210    20.6210 c6         1 TKY      -0.110400
     40 C53        -26.5120   -18.3030    20.5240 c6         1 TKY      -0.082400
     41 C54        -25.2480   -18.1790    21.3700 c6         1 TKY       0.068300
     42 C55        -25.5310   -18.6120    22.8120 c6         1 TKY       0.086000
     43 C57        -23.4190   -16.4920    21.0640 cc         1 TKY       0.322000
     44 C58        -23.3430   -15.1090    21.2680 cd         1 TKY      -0.366600
     45 C59        -24.6580   -14.7470    21.6700 cd         1 TKY       0.367500
     46 C61        -25.2060   -13.4220    21.9930 ca         1 TKY      -0.155500
     47 C62        -25.9970   -13.2420    23.1250 ca         1 TKY      -0.059000
     48 C63        -26.5400   -12.0030    23.4370 ca         1 TKY      -0.157000
     49 C64        -26.2930   -10.9230    22.6000 ca         1 TKY       0.131100
     50 C65        -25.5150   -11.0830    21.4600 ca         1 TKY      -0.157000
     51 C66        -24.9800   -12.3230    21.1640 ca         1 TKY      -0.059000
     52 C68        -27.8270    -9.4740    23.6580 ca         1 TKY       0.047100
     53 C69        -27.7020    -8.7330    24.8220 ca         1 TKY      -0.068000
     54 C70        -28.8120    -8.4520    25.6060 ca         1 TKY      -0.158000
     55 C71        -30.0420    -8.9370    25.2090 ca         1 TKY       0.194000
     56 C72        -30.2040    -9.6930    24.0610 ca         1 TKY      -0.189000
     57 C73        -29.0840    -9.9450    23.2980 ca         1 TKY       0.179000
     58 C76        -22.0820   -14.3750    21.1960 c          1 TKY       0.662700
     59 C80        -27.3630   -25.8550    24.0780 c3         1 TKY      -0.042000
     60 C81        -26.0110   -25.4200    24.6480 c3         1 TKY      -0.090433
     61 C82        -27.5230   -25.2740    22.6720 c3         1 TKY      -0.090433
     62 C83        -28.4790   -25.2910    24.9600 c3         1 TKY      -0.090433
     63 F74        -29.2020   -10.6590    22.1770 f          1 TKY      -0.155000
     64 F75        -31.1230    -8.6680    25.9510 f          1 TKY      -0.169000
     65 N21        -23.1330   -28.5530    20.9710 ns         1 TKY      -0.503900
     66 N50        -26.0120   -19.9800    22.8100 n          1 TKY      -0.382800
     67 N56        -24.6870   -16.8470    21.3460 na         1 TKY       0.089800
     68 N60        -25.4440   -15.7950    21.7210 nc         1 TKY      -0.528800
     69 N78        -22.0210   -13.1650    21.7840 nt         1 TKY      -0.600000
     70 N84        -29.1500   -28.9330    28.3460 n7         1 TKY      -0.852400
     71 N9         -26.6220   -28.4250    21.9270 n          1 TKY      -0.386800
     72 O20        -24.5270   -26.7880    21.1620 o          1 TKY      -0.599100
     73 O32        -28.4440   -25.0280    17.4610 os         1 TKY      -0.347100
     74 O35        -27.9590   -22.1950    17.8930 os         1 TKY      -0.468000
     75 O38        -25.2370   -23.3680    17.7550 os         1 TKY      -0.465000
     76 O4         -29.6530   -28.5610    25.5300 o          1 TKY      -0.621100
     77 O41        -23.3350   -22.3730    19.7330 os         1 TKY      -0.454000
     78 O44        -22.1200   -20.3230    21.3980 os         1 TKY      -0.470000
     79 O47        -24.0030   -20.6870    23.4570 os         1 TKY      -0.462100
     80 O49        -25.4700   -22.1850    22.6420 o          1 TKY      -0.532000
     81 O67        -26.7480    -9.6610    22.8470 os         1 TKY      -0.238200
     82 O77        -21.0990   -14.8600    20.6320 o          1 TKY      -0.662100
     83 O8         -25.3490   -28.3460    23.7610 o          1 TKY      -0.622100
     84 H1         -20.4060   -20.9940    20.4420 h1         1 TKY       0.056700
     85 H2         -21.7020   -20.3550    19.4310 h1         1 TKY       0.056700
     86 H3         -23.3010   -24.3710    19.1810 h1         1 TKY       0.040700
     87 H4         -23.9830   -24.0420    20.7730 h1         1 TKY       0.040700
     88 H5         -27.2530   -21.1750    16.2340 h1         1 TKY       0.036200
     89 H6         -27.2250   -22.9330    16.0930 h1         1 TKY       0.036200
     90 H7         -28.9430   -24.1350    19.2720 h1         1 TKY       0.046200
     91 H8         -30.3090   -24.5430    18.2250 h1         1 TKY       0.046200
     92 H9         -25.0080   -21.8530    16.4300 h1         1 TKY       0.050700
     93 H10        -25.5000   -21.3240    18.0320 h1         1 TKY       0.050700
     94 H11        -29.9810   -22.1830    18.1540 h1         1 TKY       0.050200
     95 H12        -29.4680   -22.7930    16.5870 h1         1 TKY       0.050200
     96 H13        -28.5080   -27.6280    23.6440 h1         1 TKY       0.085700
     97 H14        -26.5580   -28.0730    25.7860 hn         1 TKY       0.331500
     98 H15        -25.1360   -29.8920    21.7860 h1         1 TKY       0.074700
     99 H16        -27.8460   -31.2570    27.9980 hc         1 TKY       0.047033
    100 H17        -29.1010   -31.1350    26.7610 hc         1 TKY       0.047033
    101 H18        -27.4000   -31.0010    26.3080 hc         1 TKY       0.047033
    102 H19        -28.5510   -27.6140    21.7120 h1         1 TKY       0.060200
    103 H20        -28.3580   -29.2310    21.0750 h1         1 TKY       0.060200
    104 H21        -29.0480   -26.1580    19.8630 ha         1 TKY       0.119000
    105 H22        -26.5680   -26.3350    16.3570 ha         1 TKY       0.132000
    106 H23        -25.3900   -28.2860    17.3020 ha         1 TKY       0.114000
    107 H24        -26.5300   -30.3120    19.8800 hc         1 TKY       0.058700
    108 H25        -24.9750   -29.7760    19.2840 hc         1 TKY       0.058700
    109 H26        -27.2090   -28.9070    27.6620 h1         1 TKY       0.063700
    110 H27        -21.9350   -26.9030    21.3020 h1         1 TKY       0.076700
    111 H28        -21.1270   -26.5950    19.0680 hc         1 TKY       0.058200
    112 H29        -22.8560   -26.8550    18.9510 hc         1 TKY       0.058200
    113 H30        -21.7210   -28.2300    17.2380 hc         1 TKY       0.041700
    114 H31        -22.4130   -29.2970    18.4410 hc         1 TKY       0.041700
    115 H32        -20.1240   -30.0490    18.0410 hc         1 TKY       0.050200
    116 H33        -19.5120   -28.4190    18.1480 hc         1 TKY       0.050200
    117 H34        -21.0130   -28.3210    23.1140 ha         1 TKY       0.122000
    118 H35        -19.1250   -29.7580    23.7910 ha         1 TKY       0.116000
    119 H36        -17.7770   -30.9080    22.0490 ha         1 TKY       0.114000
    120 H37        -18.3300   -30.6010    19.6720 ha         1 TKY       0.111000
    121 H38        -25.8950   -22.8370    19.6610 h1         1 TKY       0.061700
    122 H39        -25.7850   -24.5590    19.3220 h1         1 TKY       0.061700
    123 H40        -21.3660   -22.8190    19.2640 h1         1 TKY       0.023700
    124 H41        -21.7900   -23.0040    20.9610 h1         1 TKY       0.023700
    125 H42        -20.8660   -21.4150    22.6560 h1         1 TKY       0.050200
    126 H43        -21.5110   -19.9090    23.2950 h1         1 TKY       0.050200
    127 H44        -23.1390   -22.4560    22.7830 h1         1 TKY       0.066700
    128 H45        -22.5740   -21.8620    24.3450 h1         1 TKY       0.066700
    129 H46        -28.0120   -19.5110    22.5520 h1         1 TKY       0.065200
    130 H47        -27.6010   -21.1710    22.1500 h1         1 TKY       0.065200
    131 H48        -28.0250   -19.7810    20.0940 hc         1 TKY       0.061200
    132 H49        -26.3930   -20.4230    20.1270 hc         1 TKY       0.061200
    133 H50        -26.2930   -18.0490    19.4850 hc         1 TKY       0.062200
    134 H51        -27.2580   -17.5890    20.8840 hc         1 TKY       0.062200
    135 H52        -24.4910   -18.8500    20.9570 h1         1 TKY       0.081700
    136 H53        -24.6480   -18.5040    23.4340 h1         1 TKY       0.074200
    137 H54        -26.3110   -17.9750    23.2370 h1         1 TKY       0.074200
    138 H55        -26.1850   -14.0770    23.7880 ha         1 TKY       0.128500
    139 H56        -27.1320   -11.8940    24.3370 ha         1 TKY       0.128500
    140 H57        -25.3370   -10.2400    20.8050 ha         1 TKY       0.128500
    141 H58        -24.3890   -12.4370    20.2640 ha         1 TKY       0.128500
    142 H59        -26.7270    -8.3610    25.1090 ha         1 TKY       0.137000
    143 H60        -28.7160    -7.8670    26.5100 ha         1 TKY       0.141000
    144 H61        -31.1750   -10.0660    23.7620 ha         1 TKY       0.153000
    145 H62        -25.9920   -24.3330    24.7400 hc         1 TKY       0.041144
    146 H63        -25.8300   -25.8310    25.6420 hc         1 TKY       0.041144
    147 H64        -25.1780   -25.7040    24.0050 hc         1 TKY       0.041144
    148 H65        -27.4170   -24.1890    22.7050 hc         1 TKY       0.041144
    149 H66        -26.7720   -25.6530    21.9780 hc         1 TKY       0.041144
    150 H67        -28.5120   -25.4880    22.2610 hc         1 TKY       0.041144
    151 H68        -28.4360   -24.2000    24.9530 hc         1 TKY       0.041144
    152 H69        -29.4650   -25.5860    24.5980 hc         1 TKY       0.041144
    153 H70        -28.3860   -25.6160    25.9970 hc         1 TKY       0.041144
    154 H71        -29.9230   -27.3810    29.5020 h1         1 TKY       0.032367
    155 H72        -28.2030   -27.2590    29.1560 h1         1 TKY       0.032367
    156 H73        -29.3830   -26.8320    27.9140 h1         1 TKY       0.032367
    157 H74        -23.0620   -29.5590    20.9550 hn         1 TKY       0.315500
    158 H75        -21.1400   -12.6780    21.8080 hn         1 TKY       0.313000
    159 H76        -22.7480   -12.8200    22.3870 hn         1 TKY       0.313000
    160 H77        -21.5640   -16.9410    20.5360 hn         1 TKY       0.497000
    161 H78        -22.4570   -18.3000    21.0120 hn         1 TKY       0.497000
    162 H79        -30.0730   -29.2160    28.0390 hn         1 TKY       0.429000
    163 N79        -22.4750   -17.3620    20.6280 nv         1 TKY      -1.079000
    164 C85        -29.1690   -27.5360    28.7300 c3         1 TKY       0.143100
@<TRIPOS>BOND
     1     1    66 1   
     2     1    79 1   
     3     1    80 2   
     4     2    35 1   
     5     2    78 1   
     6     2    84 1   
     7     2    85 1   
     8     3    34 1   
     9     3    77 1   
    10     3    86 1   
    11     3    87 1   
    12     4     6 1   
    13     4    74 1   
    14     4    88 1   
    15     4    89 1   
    16     5     7 1   
    17     5    73 1   
    18     5    90 1   
    19     5    91 1   
    20     6    75 1   
    21     6    92 1   
    22     6    93 1   
    23     7    74 1   
    24     7    94 1   
    25     7    95 1   
    26     8     9 1   
    27     8    71 1   
    28     8    83 2   
    29     9    11 1   
    30     9    59 1   
    31     9    96 1   
    32    10    19 ar  
    33    10    20 ar  
    34    10    73 1   
    35    11    31 1   
    36    11    97 1   
    37    12    14 1   
    38    12    22 1   
    39    12    71 1   
    40    12    98 1   
    41    13    18 ar  
    42    13    21 ar  
    43    13    22 1   
    44    14    65 1   
    45    14    72 2   
    46    15    27 1   
    47    15    28 ar  
    48    15    33 ar  
    49    16    23 1   
    50    16    99 1   
    51    16   100 1   
    52    16   101 1   
    53    17    18 1   
    54    17    71 1   
    55    17   102 1   
    56    17   103 1   
    57    18    19 ar  
    58    19   104 1   
    59    20    21 ar  
    60    20   105 1   
    61    21   106 1   
    62    22   107 1   
    63    22   108 1   
    64    23    31 1   
    65    23    70 1   
    66    23   109 1   
    67    24    25 1   
    68    24    28 1   
    69    24    65 1   
    70    24   110 1   
    71    25    26 1   
    72    25   111 1   
    73    25   112 1   
    74    26    27 1   
    75    26   113 1   
    76    26   114 1   
    77    27   115 1   
    78    27   116 1   
    79    28    29 ar  
    80    29    30 ar  
    81    29   117 1   
    82    30    32 ar  
    83    30   118 1   
    84    31    76 2   
    85    32    33 ar  
    86    32   119 1   
    87    33   120 1   
    88    34    75 1   
    89    34   121 1   
    90    34   122 1   
    91    35    77 1   
    92    35   123 1   
    93    35   124 1   
    94    36    37 1   
    95    36    78 1   
    96    36   125 1   
    97    36   126 1   
    98    37    79 1   
    99    37   127 1   
   100    37   128 1   
   101    38    39 1   
   102    38    66 1   
   103    38   129 1   
   104    38   130 1   
   105    39    40 1   
   106    39   131 1   
   107    39   132 1   
   108    40    41 1   
   109    40   133 1   
   110    40   134 1   
   111    41    42 1   
   112    41    67 1   
   113    41   135 1   
   114    42    66 1   
   115    42   136 1   
   116    42   137 1   
   117    43    44 2   
   118    43    67 1   
   119    43   163 1   
   120    44    45 1   
   121    44    58 1   
   122    45    46 1   
   123    45    68 2   
   124    46    47 ar  
   125    46    51 ar  
   126    47    48 ar  
   127    47   138 1   
   128    48    49 ar  
   129    48   139 1   
   130    49    50 ar  
   131    49    81 1   
   132    50    51 ar  
   133    50   140 1   
   134    51   141 1   
   135    52    53 ar  
   136    52    57 ar  
   137    52    81 1   
   138    53    54 ar  
   139    53   142 1   
   140    54    55 ar  
   141    54   143 1   
   142    55    56 ar  
   143    55    64 1   
   144    56    57 ar  
   145    56   144 1   
   146    57    63 1   
   147    58    69 1   
   148    58    82 2   
   149    59    60 1   
   150    59    61 1   
   151    59    62 1   
   152    60   145 1   
   153    60   146 1   
   154    60   147 1   
   155    61   148 1   
   156    61   149 1   
   157    61   150 1   
   158    62   151 1   
   159    62   152 1   
   160    62   153 1   
   161    65   157 1   
   162    67    68 1   
   163    69   158 1   
   164    69   159 1   
   165    70   162 1   
   166    70   164 1   
   167   154   164 1   
   168   155   164 1   
   169   156   164 1   
   170   160   163 1   
   171   161   163 1   
@<TRIPOS>SUBSTRUCTURE
     1 TKY         1 TEMP              0 ****  ****    0 ROOT
