@<TRIPOS>MOLECULE
TKZ
   85    87     1     0     0
SMALL
abcg2


@<TRIPOS>ATOM
      1 C1          23.2110    59.2960    46.5600 c3         1 TKZ       0.152900
      2 O1          23.7490    58.7880    45.3400 os         1 TKZ      -0.438100
      3 O2          25.5860    58.0970    46.4030 o          1 TKZ      -0.500000
      4 O3          14.6080    50.0440    41.8960 o          1 TKZ      -0.777500
      5 O4          14.0030    48.5170    40.3920 o          1 TKZ      -0.777500
      6 O5          18.7530    47.2140    39.1640 o          1 TKZ      -0.754000
      7 O6          19.4360    44.3680    41.9440 o          1 TKZ      -0.692100
      8 C3          20.5620    44.7390    44.5100 c3         1 TKZ      -0.008300
      9 N1          19.2550    45.1770    44.0580 ns         1 TKZ      -0.500900
     10 C4          20.5500    44.5360    46.0410 c          1 TKZ       0.717000
     11 O7          19.7910    45.2800    46.6940 o          1 TKZ      -0.754500
     12 O8          21.3350    43.6790    46.4910 o          1 TKZ      -0.754500
     13 N2          17.8230    45.9020    42.4020 ns         1 TKZ      -0.459900
     14 C5          17.6280    46.2320    41.0040 c3         1 TKZ      -0.044300
     15 C6          18.7800    47.0840    40.4050 c          1 TKZ       0.719000
     16 O9          19.6110    47.5760    41.1930 o          1 TKZ      -0.754000
     17 C7          16.2730    46.9200    40.8050 c3         1 TKZ      -0.037400
     18 C8          16.1420    48.2930    41.4490 c3         1 TKZ      -0.199400
     19 C9          14.7910    49.0070    41.2250 c          1 TKZ       0.714000
     20 C10         28.5560    57.0020    40.7240 c6         1 TKZ      -0.085400
     21 C11         27.6390    56.0640    39.9590 c6         1 TKZ      -0.019100
     22 C12         26.9350    55.1260    40.9000 ca         1 TKZ      -0.155300
     23 C13         26.7350    55.4890    42.2540 ca         1 TKZ       0.315000
     24 N3          27.2060    56.6790    42.7400 nh         1 TKZ      -0.829400
     25 C14         27.7760    57.6650    41.8400 c6         1 TKZ       0.231800
     26 C15         26.4840    53.9030    40.4460 ca         1 TKZ      -0.064000
     27 C16         25.8070    52.9920    41.2640 ca         1 TKZ      -0.017000
     28 C17         25.6080    53.3620    42.5950 ca         1 TKZ      -0.064000
     29 C18         26.0550    54.5730    43.0790 ca         1 TKZ      -0.182000
     30 C19         25.3300    51.7300    40.7320 cc         1 TKZ      -0.195000
     31 C20         25.1080    51.3890    39.4110 cd         1 TKZ      -0.122000
     32 C21         24.6280    50.0860    39.2410 cd         1 TKZ      -0.124000
     33 S1          24.9560    50.4060    41.7580 ss         1 TKZ       0.231000
     34 C22         24.4760    49.3990    40.4290 cc         1 TKZ      -0.133800
     35 C23         24.0280    48.0770    40.7190 ce         1 TKZ      -0.100200
     36 C24         23.5020    47.1390    39.8910 cf         1 TKZ       0.003100
     37 C25         23.2220    47.3930    38.5230 ch         1 TKZ       0.323700
     38 C26         23.0300    45.8020    40.3590 c          1 TKZ       0.601300
     39 N4          23.6390    45.3010    41.4420 ns         1 TKZ      -0.505900
     40 N5          22.9960    47.5930    37.4090 n1         1 TKZ      -0.473000
     41 O10         22.1300    45.2360    39.7550 o          1 TKZ      -0.507100
     42 C27         23.1820    44.1090    42.1300 c3         1 TKZ       0.096000
     43 C28         23.5470    44.1510    43.6080 c3         1 TKZ      -0.083400
     44 C29         23.0810    45.4040    44.3490 c3         1 TKZ      -0.044400
     45 C30         21.6220    45.7870    44.1270 c3         1 TKZ      -0.100400
     46 C31         26.7970    57.1630    44.0390 c3         1 TKZ       0.238800
     47 C32         25.3750    57.7190    44.0360 c3         1 TKZ      -0.180400
     48 C33         24.9420    58.2120    45.3900 c          1 TKZ       0.595100
     49 H1          22.2510    59.7350    46.3030 h1         1 TKZ       0.046367
     50 H2          23.0590    58.5020    47.2920 h1         1 TKZ       0.046367
     51 H3          23.8530    60.0630    46.9920 h1         1 TKZ       0.046367
     52 H5          20.7900    43.7880    44.0280 h1         1 TKZ       0.050700
     53 H6          18.8290    45.8680    44.6570 hn         1 TKZ       0.308500
     54 H8          17.6270    46.6600    43.0390 hn         1 TKZ       0.279500
     55 H9          17.5900    45.2930    40.4470 h1         1 TKZ       0.044700
     56 H11         15.4890    46.2590    41.1850 hc         1 TKZ       0.026700
     57 H12         16.1020    47.0080    39.7320 hc         1 TKZ       0.026700
     58 H13         16.9280    48.9580    41.0720 hc         1 TKZ       0.027700
     59 H14         16.3110    48.2400    42.5300 hc         1 TKZ       0.027700
     60 H15         29.4010    56.4500    41.1420 hc         1 TKZ       0.043700
     61 H16         28.9640    57.7690    40.0650 hc         1 TKZ       0.043700
     62 H17         26.9000    56.6550    39.4070 hc         1 TKZ       0.044200
     63 H18         28.1960    55.4950    39.2120 hc         1 TKZ       0.044200
     64 H19         28.4340    58.3110    42.4250 h1         1 TKZ       0.026200
     65 H20         26.9970    58.3080    41.4100 h1         1 TKZ       0.026200
     66 H21         26.6820    53.6500    39.4110 ha         1 TKZ       0.108000
     67 H22         25.0730    52.7090    43.2750 ha         1 TKZ       0.128000
     68 H23         25.8580    54.8010    44.1170 ha         1 TKZ       0.110000
     69 H24         25.2660    52.0720    38.5890 ha         1 TKZ       0.119000
     70 H25         24.4040    49.6710    38.2700 ha         1 TKZ       0.149000
     71 H26         24.1010    47.7920    41.7630 ha         1 TKZ       0.197000
     72 H29         24.4980    45.7190    41.7620 hn         1 TKZ       0.286500
     73 H30         22.1020    44.0380    42.0100 h1         1 TKZ       0.064200
     74 H31         23.6130    43.2130    41.6710 h1         1 TKZ       0.064200
     75 H32         23.1190    43.2610    44.0750 hc         1 TKZ       0.029200
     76 H33         24.6310    44.0550    43.7200 hc         1 TKZ       0.029200
     77 H34         23.6960    46.2560    44.0440 hc         1 TKZ       0.015200
     78 H35         23.2790    45.2660    45.4130 hc         1 TKZ       0.015200
     79 H36         21.4070    46.7030    44.6870 hc         1 TKZ       0.051700
     80 H37         21.4770    46.0480    43.0750 hc         1 TKZ       0.051700
     81 H38         26.9040    56.3760    44.7860 h1         1 TKZ       0.059700
     82 H39         27.4990    57.9440    44.3330 h1         1 TKZ       0.059700
     83 H40         25.2870    58.5370    43.3160 hc         1 TKZ       0.085200
     84 H41         24.6630    56.9550    43.7070 hc         1 TKZ       0.085200
     85 C2          18.8930    45.1230    42.7480 c          1 TKZ       0.633100
@<TRIPOS>BOND
     1     1     2 1   
     2     1    49 1   
     3     1    50 1   
     4     1    51 1   
     5     2    48 1   
     6     3    48 2   
     7     4    19 1   
     8     5    19 1   
     9     6    15 1   
    10     7    85 2   
    11     8     9 1   
    12     8    10 1   
    13     8    45 1   
    14     8    52 1   
    15     9    53 1   
    16     9    85 1   
    17    10    11 1   
    18    10    12 1   
    19    13    14 1   
    20    13    54 1   
    21    13    85 1   
    22    14    15 1   
    23    14    17 1   
    24    14    55 1   
    25    15    16 1   
    26    17    18 1   
    27    17    56 1   
    28    17    57 1   
    29    18    19 1   
    30    18    58 1   
    31    18    59 1   
    32    20    21 1   
    33    20    25 1   
    34    20    60 1   
    35    20    61 1   
    36    21    22 1   
    37    21    62 1   
    38    21    63 1   
    39    22    23 ar  
    40    22    26 ar  
    41    23    24 1   
    42    23    29 ar  
    43    24    25 1   
    44    24    46 1   
    45    25    64 1   
    46    25    65 1   
    47    26    27 ar  
    48    26    66 1   
    49    27    28 ar  
    50    27    30 1   
    51    28    29 ar  
    52    28    67 1   
    53    29    68 1   
    54    30    31 2   
    55    30    33 1   
    56    31    32 1   
    57    31    69 1   
    58    32    34 2   
    59    32    70 1   
    60    33    34 1   
    61    34    35 1   
    62    35    36 2   
    63    35    71 1   
    64    36    37 1   
    65    36    38 1   
    66    37    40 3   
    67    38    39 1   
    68    38    41 2   
    69    39    42 1   
    70    39    72 1   
    71    42    43 1   
    72    42    73 1   
    73    42    74 1   
    74    43    44 1   
    75    43    75 1   
    76    43    76 1   
    77    44    45 1   
    78    44    77 1   
    79    44    78 1   
    80    45    79 1   
    81    45    80 1   
    82    46    47 1   
    83    46    81 1   
    84    46    82 1   
    85    47    48 1   
    86    47    83 1   
    87    47    84 1   
@<TRIPOS>SUBSTRUCTURE
     1 TKZ         1 TEMP              0 ****  ****    0 ROOT
