@<TRIPOS>MOLECULE
TKZ
   85    87     1     0     0
SMALL
No Charge or Current Charge


@<TRIPOS>ATOM
      1 C1          25.4250    61.8010    45.4670 c3         1 TKZ       0.152900
      2 O1          26.0010    60.9580    44.4520 os         1 TKZ      -0.438100
      3 O2          24.5030    59.2710    44.8870 o          1 TKZ      -0.500000
      4 O3          14.3940    41.6360    41.3940 o          1 TKZ      -0.777500
      5 O4          12.5810    42.6770    40.8900 o          1 TKZ      -0.777500
      6 O5          13.9260    47.8270    41.2930 o          1 TKZ      -0.754000
      7 O6          18.3030    45.1940    41.6990 o          1 TKZ      -0.692100
      8 C3          19.7780    44.8690    44.1860 c3         1 TKZ      -0.008300
      9 N1          18.3720    45.2900    43.9810 ns         1 TKZ      -0.500900
     10 C4          19.9590    44.2490    45.6140 c          1 TKZ       0.717000
     11 O7          19.6220    44.9120    46.5870 o          1 TKZ      -0.754500
     12 O8          20.3280    43.0860    45.7000 o          1 TKZ      -0.754500
     13 N2          16.4660    45.8750    42.8830 ns         1 TKZ      -0.459900
     14 C5          15.5270    46.1050    41.7560 c3         1 TKZ      -0.044300
     15 C6          14.3810    47.0930    42.1600 c          1 TKZ       0.719000
     16 O9          14.0660    47.1900    43.3400 o          1 TKZ      -0.754000
     17 C7          14.9780    44.7790    41.1570 c3         1 TKZ      -0.037400
     18 C8          14.1950    43.8800    42.1510 c3         1 TKZ      -0.199400
     19 C9          13.6750    42.6230    41.4310 c          1 TKZ       0.714000
     20 C10         30.3090    56.8230    41.9470 c6         1 TKZ      -0.085400
     21 C11         29.7520    55.7530    40.9920 c6         1 TKZ      -0.019100
     22 C12         28.3910    55.2310    41.4560 ca         1 TKZ      -0.155300
     23 C13         27.5750    55.9910    42.3340 ca         1 TKZ       0.315000
     24 N3          28.0080    57.2710    42.7990 nh         1 TKZ      -0.829400
     25 C14         29.2380    57.8900    42.2360 c6         1 TKZ       0.231800
     26 C15         27.9560    53.9750    40.9870 ca         1 TKZ      -0.064000
     27 C16         26.7130    53.4450    41.3790 ca         1 TKZ      -0.017000
     28 C17         25.9090    54.1910    42.2580 ca         1 TKZ      -0.064000
     29 C18         26.3320    55.4470    42.7250 ca         1 TKZ      -0.182000
     30 C19         26.2580    52.1360    40.9020 cc         1 TKZ      -0.195000
     31 C20         26.6000    51.6500    39.6660 cd         1 TKZ      -0.122000
     32 C21         26.0350    50.3720    39.4040 cd         1 TKZ      -0.124000
     33 S1          25.2160    51.0210    41.7770 ss         1 TKZ       0.231000
     34 C22         25.2430    49.8820    40.4220 cc         1 TKZ      -0.133800
     35 C23         24.5310    48.6030    40.5350 ce         1 TKZ      -0.100200
     36 C24         24.0180    47.8000    39.5400 cf         1 TKZ       0.003100
     37 C25         24.1060    48.1600    38.1580 ch         1 TKZ       0.323700
     38 C26         23.2990    46.5030    39.8130 c          1 TKZ       0.601300
     39 N4          23.2110    46.0910    41.1320 ns         1 TKZ      -0.505900
     40 N5          24.1540    48.4850    37.0360 n1         1 TKZ      -0.473000
     41 O10         22.8080    45.8180    38.9240 o          1 TKZ      -0.507100
     42 C27         22.5420    44.8620    41.5680 c3         1 TKZ       0.096000
     43 C28         22.7600    44.5810    43.0710 c3         1 TKZ      -0.083400
     44 C29         22.2590    45.6910    44.0320 c3         1 TKZ      -0.044400
     45 C30         20.7550    46.0450    43.9130 c3         1 TKZ      -0.100400
     46 C31         27.2600    58.0690    43.7990 c3         1 TKZ       0.238800
     47 C32         26.1730    58.9470    43.1640 c3         1 TKZ      -0.180400
     48 C33         25.4440    59.7230    44.2490 c          1 TKZ       0.595100
     49 H1          25.9630    62.7550    45.5210 h1         1 TKZ       0.046367
     50 H2          24.3710    62.0160    45.2460 h1         1 TKZ       0.046367
     51 H3          25.4830    61.3210    46.4540 h1         1 TKZ       0.046367
     52 H5          19.9860    44.0700    43.4630 h1         1 TKZ       0.050700
     53 H6          17.8220    45.5100    44.8030 hn         1 TKZ       0.308500
     54 H8          16.1220    46.0560    43.8170 hn         1 TKZ       0.279500
     55 H9          16.0950    46.6100    40.9640 h1         1 TKZ       0.044700
     56 H11         15.8140    44.2040    40.7430 hc         1 TKZ       0.026700
     57 H12         14.3270    45.0250    40.3090 hc         1 TKZ       0.026700
     58 H13         13.3530    44.4830    42.5100 hc         1 TKZ       0.027700
     59 H14         14.9060    43.5990    42.9370 hc         1 TKZ       0.027700
     60 H15         30.6210    56.3530    42.8900 hc         1 TKZ       0.043700
     61 H16         31.2020    57.2910    41.5140 hc         1 TKZ       0.043700
     62 H17         29.6490    56.1790    39.9840 hc         1 TKZ       0.044200
     63 H18         30.4720    54.9270    40.9090 hc         1 TKZ       0.044200
     64 H19         29.6590    58.6270    42.9360 h1         1 TKZ       0.026200
     65 H20         28.9920    58.4240    41.3060 h1         1 TKZ       0.026200
     66 H21         28.6020    53.4070    40.3220 ha         1 TKZ       0.108000
     67 H22         24.9420    53.8070    42.5740 ha         1 TKZ       0.128000
     68 H23         25.6680    55.9890    43.3890 ha         1 TKZ       0.110000
     69 H24         27.2290    52.1750    38.9540 ha         1 TKZ       0.119000
     70 H25         26.2310    49.8380    38.4800 ha         1 TKZ       0.149000
     71 H26         24.3840    48.3070    41.5730 ha         1 TKZ       0.197000
     72 H29         23.6420    46.6710    41.8380 hn         1 TKZ       0.286500
     73 H30         21.4680    44.9420    41.3540 h1         1 TKZ       0.064200
     74 H31         22.9370    44.0180    40.9860 h1         1 TKZ       0.064200
     75 H32         22.2730    43.6320    43.3250 hc         1 TKZ       0.029200
     76 H33         23.8320    44.4270    43.2460 hc         1 TKZ       0.029200
     77 H34         22.8460    46.6020    43.8640 hc         1 TKZ       0.015200
     78 H35         22.4740    45.3830    45.0630 hc         1 TKZ       0.015200
     79 H36         20.5350    46.8560    44.6190 hc         1 TKZ       0.051700
     80 H37         20.5630    46.4550    42.9150 hc         1 TKZ       0.051700
     81 H38         26.8110    57.4110    44.5570 h1         1 TKZ       0.059700
     82 H39         27.9540    58.7190    44.3510 h1         1 TKZ       0.059700
     83 H40         26.6700    59.6460    42.4840 hc         1 TKZ       0.085200
     84 H41         25.4620    58.3140    42.6240 hc         1 TKZ       0.085200
     85 C2          17.7570    45.4320    42.7650 c          1 TKZ       0.633100
@<TRIPOS>BOND
     1     1     2 1   
     2     1    49 1   
     3     1    50 1   
     4     1    51 1   
     5     2    48 1   
     6     3    48 2   
     7     4    19 1   
     8     5    19 1   
     9     6    15 1   
    10     7    85 2   
    11     8     9 1   
    12     8    10 1   
    13     8    45 1   
    14     8    52 1   
    15     9    53 1   
    16     9    85 1   
    17    10    11 1   
    18    10    12 1   
    19    13    14 1   
    20    13    54 1   
    21    13    85 1   
    22    14    15 1   
    23    14    17 1   
    24    14    55 1   
    25    15    16 1   
    26    17    18 1   
    27    17    56 1   
    28    17    57 1   
    29    18    19 1   
    30    18    58 1   
    31    18    59 1   
    32    20    21 1   
    33    20    25 1   
    34    20    60 1   
    35    20    61 1   
    36    21    22 1   
    37    21    62 1   
    38    21    63 1   
    39    22    23 ar  
    40    22    26 ar  
    41    23    24 1   
    42    23    29 ar  
    43    24    25 1   
    44    24    46 1   
    45    25    64 1   
    46    25    65 1   
    47    26    27 ar  
    48    26    66 1   
    49    27    28 ar  
    50    27    30 1   
    51    28    29 ar  
    52    28    67 1   
    53    29    68 1   
    54    30    31 2   
    55    30    33 1   
    56    31    32 1   
    57    31    69 1   
    58    32    34 2   
    59    32    70 1   
    60    33    34 1   
    61    34    35 1   
    62    35    36 2   
    63    35    71 1   
    64    36    37 1   
    65    36    38 1   
    66    37    40 3   
    67    38    39 1   
    68    38    41 2   
    69    39    42 1   
    70    39    72 1   
    71    42    43 1   
    72    42    73 1   
    73    42    74 1   
    74    43    44 1   
    75    43    75 1   
    76    43    76 1   
    77    44    45 1   
    78    44    77 1   
    79    44    78 1   
    80    45    79 1   
    81    45    80 1   
    82    46    47 1   
    83    46    81 1   
    84    46    82 1   
    85    47    48 1   
    86    47    83 1   
    87    47    84 1   
@<TRIPOS>SUBSTRUCTURE
     1 TKZ         1 TEMP              0 ****  ****    0 ROOT
