@<TRIPOS>MOLECULE
TL0
   88    92     1     0     0
SMALL
abcg2


@<TRIPOS>ATOM
      1 C24          3.6240   -36.3640    -0.2240 ca         1 TL0      -0.009500
      2 F           -6.6970   -41.9730     2.1070 f          1 TL0      -0.183000
      3 C3           0.8240   -43.4010     1.1680 c6         1 TL0      -0.077400
      4 O            5.0670   -39.8040     0.5000 o          1 TL0      -0.550500
      5 C1           0.6150   -40.0790    -0.5750 c3         1 TL0       0.159800
      6 C2           1.3470   -42.0350     0.7440 c6         1 TL0       0.189300
      7 C            1.7680   -39.5790    -1.4500 c3         1 TL0       0.182800
      8 C4           0.5140   -42.3370    -1.4960 c6         1 TL0       0.189300
      9 O1          -2.3940   -48.2490     3.8210 os         1 TL0      -0.424100
     10 N            3.1180   -39.8940    -1.0100 n7         1 TL0      -0.923300
     11 C9          -2.7700   -45.8150     2.1200 cc         1 TL0       0.282800
     12 C8          -1.3990   -45.7620     2.1640 cd         1 TL0      -0.189000
     13 C7           0.3230   -45.7590     0.3360 c3         1 TL0       0.084600
     14 C6           0.7840   -44.3500    -0.0260 c6         1 TL0      -0.077700
     15 C5          -0.0200   -43.7220    -1.1600 c6         1 TL0      -0.077400
     16 C10         -3.7340   -45.7390     3.2070 cc         1 TL0      -0.092000
     17 C14         -1.3530   -50.1840     2.8350 c3         1 TL0      -0.065700
     18 C13         -1.5580   -49.3790     4.1060 c3         1 TL0       0.166600
     19 N1           0.5220   -41.4970    -0.3190 n3         1 TL0      -0.760600
     20 C11         -3.8020   -46.4920     4.3590 cd         1 TL0      -0.117300
     21 C15         -0.4270   -51.3540     3.1590 c3         1 TL0      -0.088100
     22 C23          4.2620   -37.5370    -0.5910 ca         1 TL0      -0.279500
     23 C22         -4.7700   -44.7640     3.3100 ca         1 TL0      -0.080800
     24 C18         -6.4840   -44.1750     4.9630 ca         1 TL0      -0.106000
     25 C17         -5.4140   -44.9700     4.5470 ca         1 TL0      -0.049200
     26 C16         -0.7960   -49.3480     1.6890 c3         1 TL0      -0.088100
     27 C19         -6.8970   -43.1690     4.1190 ca         1 TL0      -0.116000
     28 O2          -3.0420   -48.0380     5.9590 o          1 TL0      -0.503000
     29 N2          -1.0220   -45.8180     0.8790 na         1 TL0       0.125800
     30 C21         -5.1940   -43.7300     2.4630 ca         1 TL0      -0.079000
     31 C20         -6.2460   -42.9680     2.8940 ca         1 TL0       0.132000
     32 C25          3.9520   -35.1820    -0.8770 ca         1 TL0      -0.133000
     33 C26          4.9070   -35.1570    -1.8870 ca         1 TL0      -0.016300
     34 C27          5.2580   -33.8830    -2.5990 c3         1 TL0      -0.041100
     35 C28          6.6480   -33.3350    -2.2460 c3         1 TL0      -0.056700
     36 C29          6.9450   -32.1010    -3.0910 c3         1 TL0      -0.089600
     37 C30          6.7660   -33.0150    -0.7610 c3         1 TL0      -0.089600
     38 C31          5.5440   -36.3540    -2.2290 ca         1 TL0      -0.133000
     39 C32          5.2300   -37.5390    -1.5910 ca         1 TL0      -0.009500
     40 N3          -2.0760   -45.8980     0.0840 nd         1 TL0      -0.210800
     41 N4          -3.1340   -45.8910     0.8200 nc         1 TL0      -0.345000
     42 N5          -4.7970   -46.0130     5.1620 na         1 TL0      -0.186700
     43 O3           2.9350   -38.7520     1.2900 o          1 TL0      -0.550500
     44 S            3.8490   -39.0670     0.1990 sy         1 TL0       1.168600
     45 H1           2.8730   -36.3590     0.5540 ha         1 TL0       0.134000
     46 H2          -0.1790   -43.2780     1.5870 hc         1 TL0       0.056950
     47 H3           1.4620   -43.8070     1.9580 hc         1 TL0       0.056950
     48 H4          -0.3020   -39.7620    -1.0830 h1         1 TL0       0.070200
     49 H5           0.6300   -39.5580     0.3830 h1         1 TL0       0.070200
     50 H6           2.4060   -42.1490     0.4590 h1         1 TL0       0.030450
     51 H7           1.3210   -41.3490     1.5930 h1         1 TL0       0.030450
     52 H8           1.6790   -39.9820    -2.4600 h1         1 TL0       0.057700
     53 H9           1.6800   -38.4940    -1.5590 h1         1 TL0       0.057700
     54 H10          1.5180   -42.4390    -1.9450 h1         1 TL0       0.030450
     55 H11         -0.1220   -41.8740    -2.2550 h1         1 TL0       0.030450
     56 H12          3.4110   -40.8610    -1.0650 hn         1 TL0       0.499000
     57 H13         -0.7000   -45.6940     2.9800 h4         1 TL0       0.168000
     58 H14          0.3440   -46.4030    -0.5430 h1         1 TL0       0.068700
     59 H15          0.9880   -46.1940     1.0830 h1         1 TL0       0.068700
     60 H16          1.8150   -44.4820    -0.3810 hc         1 TL0       0.052700
     61 H17         -1.0700   -43.6320    -0.8730 hc         1 TL0       0.056950
     62 H18          0.0190   -44.3550    -2.0510 hc         1 TL0       0.056950
     63 H19         -2.3240   -50.5920     2.5330 hc         1 TL0       0.062700
     64 H20         -2.0150   -50.0010     4.8780 h1         1 TL0       0.051200
     65 H21         -0.5990   -49.0130     4.4870 h1         1 TL0       0.051200
     66 H23         -0.8200   -51.9710     3.9680 hc         1 TL0       0.037367
     67 H24         -0.2990   -51.9940     2.2860 hc         1 TL0       0.037367
     68 H25          0.5620   -51.0000     3.4570 hc         1 TL0       0.037367
     69 H26         -6.9740   -44.3380     5.9130 ha         1 TL0       0.122000
     70 H27         -1.4980   -48.5840     1.3580 hc         1 TL0       0.037367
     71 H28          0.1330   -48.8510     1.9800 hc         1 TL0       0.037367
     72 H29         -0.5760   -49.9820     0.8290 hc         1 TL0       0.037367
     73 H30         -7.7230   -42.5270     4.3940 ha         1 TL0       0.130000
     74 H31         -4.7220   -43.5460     1.5070 ha         1 TL0       0.148000
     75 H32          3.4480   -34.2670    -0.5950 ha         1 TL0       0.117500
     76 H33          5.2140   -34.0560    -3.6780 hc         1 TL0       0.051200
     77 H34          4.5080   -33.1180    -2.3740 hc         1 TL0       0.051200
     78 H35          7.3870   -34.1050    -2.4930 hc         1 TL0       0.048700
     79 H36          7.9450   -31.7160    -2.8870 hc         1 TL0       0.035533
     80 H37          6.8850   -32.3220    -4.1580 hc         1 TL0       0.035533
     81 H38          6.2330   -31.3010    -2.8760 hc         1 TL0       0.035533
     82 H39          7.7500   -32.6040    -0.5290 hc         1 TL0       0.035533
     83 H40          6.0190   -32.2750    -0.4640 hc         1 TL0       0.035533
     84 H41          6.6250   -33.8990    -0.1380 hc         1 TL0       0.035533
     85 H42          6.2900   -36.3580    -3.0140 ha         1 TL0       0.117500
     86 H43          5.7270   -38.4550    -1.8830 ha         1 TL0       0.134000
     87 H44         -5.0560   -46.4100     6.0520 hn         1 TL0       0.371000
     88 C12         -3.0370   -47.6630     4.8110 c          1 TL0       0.629300
@<TRIPOS>BOND
     1     1    22 ar  
     2     1    32 ar  
     3     1    45 1   
     4     2    31 1   
     5     3     6 1   
     6     3    14 1   
     7     3    46 1   
     8     3    47 1   
     9     4    44 2   
    10     5     7 1   
    11     5    19 1   
    12     5    48 1   
    13     5    49 1   
    14     6    19 1   
    15     6    50 1   
    16     6    51 1   
    17     7    10 1   
    18     7    52 1   
    19     7    53 1   
    20     8    15 1   
    21     8    19 1   
    22     8    54 1   
    23     8    55 1   
    24     9    18 1   
    25     9    88 1   
    26    10    44 1   
    27    10    56 1   
    28    11    12 2   
    29    11    16 1   
    30    11    41 1   
    31    12    29 1   
    32    12    57 1   
    33    13    14 1   
    34    13    29 1   
    35    13    58 1   
    36    13    59 1   
    37    14    15 1   
    38    14    60 1   
    39    15    61 1   
    40    15    62 1   
    41    16    20 2   
    42    16    23 1   
    43    17    18 1   
    44    17    21 1   
    45    17    26 1   
    46    17    63 1   
    47    18    64 1   
    48    18    65 1   
    49    20    42 1   
    50    20    88 1   
    51    21    66 1   
    52    21    67 1   
    53    21    68 1   
    54    22    39 ar  
    55    22    44 1   
    56    23    25 ar  
    57    23    30 ar  
    58    24    25 ar  
    59    24    27 ar  
    60    24    69 1   
    61    25    42 1   
    62    26    70 1   
    63    26    71 1   
    64    26    72 1   
    65    27    31 ar  
    66    27    73 1   
    67    28    88 2   
    68    29    40 1   
    69    30    31 ar  
    70    30    74 1   
    71    32    33 ar  
    72    32    75 1   
    73    33    34 1   
    74    33    38 ar  
    75    34    35 1   
    76    34    76 1   
    77    34    77 1   
    78    35    36 1   
    79    35    37 1   
    80    35    78 1   
    81    36    79 1   
    82    36    80 1   
    83    36    81 1   
    84    37    82 1   
    85    37    83 1   
    86    37    84 1   
    87    38    39 ar  
    88    38    85 1   
    89    39    86 1   
    90    40    41 2   
    91    42    87 1   
    92    43    44 2   
@<TRIPOS>SUBSTRUCTURE
     1 TL0         1 TEMP              0 ****  ****    0 ROOT
