@<TRIPOS>MOLECULE
TL0
   88    92     1     0     0
SMALL
No Charge or Current Charge


@<TRIPOS>ATOM
      1 C24          4.0180   -37.9230     0.0440 ca         1 TL0      -0.009500
      2 F           -8.2830   -42.9820     1.8100 f          1 TL0      -0.183000
      3 C3           0.9260   -43.9170     0.3370 c6         1 TL0      -0.077400
      4 O            6.4520   -40.8060    -0.8770 o          1 TL0      -0.550500
      5 C1           1.7140   -40.4660    -1.2370 c3         1 TL0       0.159800
      6 C2           1.8020   -42.7140    -0.0850 c6         1 TL0       0.189300
      7 C            2.9110   -40.4440    -2.2480 c3         1 TL0       0.182800
      8 C4           0.5100   -42.4550    -2.1820 c6         1 TL0       0.189300
      9 O1          -1.7950   -46.9280     3.9770 os         1 TL0      -0.424100
     10 N            4.1530   -41.1110    -1.7760 n7         1 TL0      -0.923300
     11 C9          -3.2030   -45.2700     1.7460 cc         1 TL0       0.282800
     12 C8          -1.8660   -45.4770     1.5840 cd         1 TL0      -0.189000
     13 C7          -0.4920   -45.9130    -0.5310 c3         1 TL0       0.084600
     14 C6           0.3670   -44.6640    -0.9030 c6         1 TL0      -0.077700
     15 C5          -0.3900   -43.6580    -1.8110 c6         1 TL0      -0.077400
     16 C10         -3.8540   -44.9240     2.9980 cc         1 TL0      -0.092000
     17 C14         -0.6770   -49.0520     3.5400 c3         1 TL0      -0.065700
     18 C13         -0.7400   -47.7930     4.4420 c3         1 TL0       0.166600
     19 N1           1.0470   -41.7810    -0.9660 n3         1 TL0      -0.760600
     20 C11         -3.3370   -45.0670     4.3040 cd         1 TL0      -0.117300
     21 C15          0.3660   -50.0600     4.0760 c3         1 TL0      -0.088100
     22 C23          4.8500   -38.6760    -0.8100 ca         1 TL0      -0.279500
     23 C22         -5.1490   -44.2960     3.1530 ca         1 TL0      -0.080800
     24 C18         -6.4360   -43.3310     4.9660 ca         1 TL0      -0.106000
     25 C17         -5.2930   -43.9790     4.4760 ca         1 TL0      -0.049200
     26 C16         -0.4110   -48.7200     2.0540 c3         1 TL0      -0.088100
     27 C19         -7.4560   -42.9980     4.0500 ca         1 TL0      -0.116000
     28 O2          -1.7060   -45.7180     5.9030 o          1 TL0      -0.503000
     29 N2          -1.7300   -45.6510     0.2260 na         1 TL0       0.125800
     30 C21         -6.1450   -43.9600     2.2160 ca         1 TL0      -0.079000
     31 C20         -7.3050   -43.3120     2.6830 ca         1 TL0       0.132000
     32 C25          3.8480   -36.5460    -0.1770 ca         1 TL0      -0.133000
     33 C26          4.5060   -35.9060    -1.2450 ca         1 TL0      -0.016300
     34 C27          4.3220   -34.4110    -1.4820 c3         1 TL0      -0.041100
     35 C28          5.5660   -33.5690    -1.0920 c3         1 TL0      -0.056700
     36 C29          5.3840   -32.0860    -1.4860 c3         1 TL0      -0.089600
     37 C30          5.9200   -33.7060     0.4070 c3         1 TL0      -0.089600
     38 C31          5.3380   -36.6610    -2.0920 ca         1 TL0      -0.133000
     39 C32          5.5130   -38.0390    -1.8780 ca         1 TL0      -0.009500
     40 N3          -2.9470   -45.5430    -0.3960 nd         1 TL0      -0.210800
     41 N4          -3.8320   -45.2830     0.5330 nc         1 TL0      -0.345000
     42 N5          -4.1870   -44.3710     5.2020 na         1 TL0      -0.186700
     43 O3           4.4240   -40.8550     0.6960 o          1 TL0      -0.550500
     44 S            5.0720   -40.4440    -0.5490 sy         1 TL0       1.168600
     45 H1           3.5040   -38.3970     0.8790 ha         1 TL0       0.134000
     46 H2           0.1030   -43.5500     0.9650 hc         1 TL0       0.056950
     47 H3           1.5180   -44.6020     0.9600 hc         1 TL0       0.056950
     48 H4           0.9590   -39.7800    -1.6440 h1         1 TL0       0.070200
     49 H5           2.0390   -40.0130    -0.2920 h1         1 TL0       0.070200
     50 H6           2.6950   -43.0950    -0.5980 h1         1 TL0       0.030450
     51 H7           2.1360   -42.1920     0.8230 h1         1 TL0       0.030450
     52 H8           2.5720   -40.9280    -3.1730 h1         1 TL0       0.057700
     53 H9           3.1110   -39.4010    -2.5250 h1         1 TL0       0.057700
     54 H10          1.3340   -42.8130    -2.8170 h1         1 TL0       0.030450
     55 H11         -0.0800   -41.7460    -2.7820 h1         1 TL0       0.030450
     56 H12          3.9080   -42.0080    -1.3660 hn         1 TL0       0.499000
     57 H13         -1.0300   -45.4520     2.2670 h4         1 TL0       0.168000
     58 H14         -0.7610   -46.4390    -1.4550 h1         1 TL0       0.068700
     59 H15          0.1290   -46.5970     0.0600 h1         1 TL0       0.068700
     60 H16          1.2210   -45.0590    -1.4730 hc         1 TL0       0.052700
     61 H17         -1.2880   -43.2860    -1.3010 hc         1 TL0       0.056950
     62 H18         -0.7330   -44.1560    -2.7280 hc         1 TL0       0.056950
     63 H19         -1.6570   -49.5420     3.5970 hc         1 TL0       0.062700
     64 H20         -0.9350   -48.1190     5.4730 h1         1 TL0       0.051200
     65 H21          0.2260   -47.2690     4.4270 h1         1 TL0       0.051200
     66 H23          0.1430   -50.3340     5.1140 hc         1 TL0       0.037367
     67 H24          0.3620   -50.9780     3.4760 hc         1 TL0       0.037367
     68 H25          1.3760   -49.6320     4.0430 hc         1 TL0       0.037367
     69 H26         -6.5350   -43.0880     6.0210 ha         1 TL0       0.122000
     70 H27         -1.2490   -48.1600     1.6270 hc         1 TL0       0.037367
     71 H28          0.5040   -48.1260     1.9430 hc         1 TL0       0.037367
     72 H29         -0.2980   -49.6390     1.4650 hc         1 TL0       0.037367
     73 H30         -8.3560   -42.4950     4.3950 ha         1 TL0       0.130000
     74 H31         -6.0460   -44.1880     1.1600 ha         1 TL0       0.148000
     75 H32          3.2050   -35.9750     0.4880 ha         1 TL0       0.117500
     76 H33          4.0970   -34.2430    -2.5420 hc         1 TL0       0.051200
     77 H34          3.4500   -34.0410    -0.9290 hc         1 TL0       0.051200
     78 H35          6.4200   -33.9510    -1.6660 hc         1 TL0       0.048700
     79 H36          6.2870   -31.5090    -1.2550 hc         1 TL0       0.035533
     80 H37          5.1900   -31.9900    -2.5620 hc         1 TL0       0.035533
     81 H38          4.5420   -31.6370    -0.9440 hc         1 TL0       0.035533
     82 H39          6.8020   -33.1030     0.6530 hc         1 TL0       0.035533
     83 H40          5.0880   -33.3690     1.0380 hc         1 TL0       0.035533
     84 H41          6.1470   -34.7470     0.6650 hc         1 TL0       0.035533
     85 H42          5.8510   -36.1790    -2.9210 ha         1 TL0       0.117500
     86 H43          6.1570   -38.6090    -2.5460 ha         1 TL0       0.134000
     87 H44         -4.0640   -44.2960     6.2070 hn         1 TL0       0.371000
     88 C12         -2.1870   -45.8950     4.7900 c          1 TL0       0.629300
@<TRIPOS>BOND
     1     1    22 ar  
     2     1    32 ar  
     3     1    45 1   
     4     2    31 1   
     5     3     6 1   
     6     3    14 1   
     7     3    46 1   
     8     3    47 1   
     9     4    44 2   
    10     5     7 1   
    11     5    19 1   
    12     5    48 1   
    13     5    49 1   
    14     6    19 1   
    15     6    50 1   
    16     6    51 1   
    17     7    10 1   
    18     7    52 1   
    19     7    53 1   
    20     8    15 1   
    21     8    19 1   
    22     8    54 1   
    23     8    55 1   
    24     9    18 1   
    25     9    88 1   
    26    10    44 1   
    27    10    56 1   
    28    11    12 2   
    29    11    16 1   
    30    11    41 1   
    31    12    29 1   
    32    12    57 1   
    33    13    14 1   
    34    13    29 1   
    35    13    58 1   
    36    13    59 1   
    37    14    15 1   
    38    14    60 1   
    39    15    61 1   
    40    15    62 1   
    41    16    20 2   
    42    16    23 1   
    43    17    18 1   
    44    17    21 1   
    45    17    26 1   
    46    17    63 1   
    47    18    64 1   
    48    18    65 1   
    49    20    42 1   
    50    20    88 1   
    51    21    66 1   
    52    21    67 1   
    53    21    68 1   
    54    22    39 ar  
    55    22    44 1   
    56    23    25 ar  
    57    23    30 ar  
    58    24    25 ar  
    59    24    27 ar  
    60    24    69 1   
    61    25    42 1   
    62    26    70 1   
    63    26    71 1   
    64    26    72 1   
    65    27    31 ar  
    66    27    73 1   
    67    28    88 2   
    68    29    40 1   
    69    30    31 ar  
    70    30    74 1   
    71    32    33 ar  
    72    32    75 1   
    73    33    34 1   
    74    33    38 ar  
    75    34    35 1   
    76    34    76 1   
    77    34    77 1   
    78    35    36 1   
    79    35    37 1   
    80    35    78 1   
    81    36    79 1   
    82    36    80 1   
    83    36    81 1   
    84    37    82 1   
    85    37    83 1   
    86    37    84 1   
    87    38    39 ar  
    88    38    85 1   
    89    39    86 1   
    90    40    41 2   
    91    42    87 1   
    92    43    44 2   
@<TRIPOS>SUBSTRUCTURE
     1 TL0         1 TEMP              0 ****  ****    0 ROOT
