@<TRIPOS>MOLECULE
TL1
   50    53     1     0     0
SMALL
No Charge or Current Charge


@<TRIPOS>ATOM
      1 N1           5.9100     3.0040     0.5180 n2         1 TL1      -0.833100
      2 C1           6.5520     1.9120     0.4290 ce         1 TL1       0.660300
      3 N2           7.8560     1.9240     0.7670 nv         1 TL1      -1.055700
      4 C2           5.9090     0.5910     0.1250 ca         1 TL1      -0.134400
      5 C3           6.6600    -0.4720    -0.4340 ca         1 TL1      -0.125500
      6 C4           6.0500    -1.7010    -0.7390 ca         1 TL1      -0.079000
      7 C5           4.6770    -1.8830    -0.5160 ca         1 TL1      -0.186000
      8 C6           3.9040    -0.8220    -0.0030 ca         1 TL1       0.139100
      9 O1           2.5510    -0.9560     0.2480 os         1 TL1      -0.332100
     10 C7           1.8310    -1.3780    -0.9580 c5         1 TL1       0.121300
     11 C8           1.8160    -0.2030    -1.9940 c5         1 TL1       0.122600
     12 O2           0.6440     0.5630    -1.6580 os         1 TL1      -0.424000
     13 C9          -0.3980    -0.3950    -1.3810 c5         1 TL1       0.138300
     14 C10         -1.3920     0.2120    -0.3380 c5         1 TL1       0.121300
     15 O3          -2.7120     0.1720    -0.9610 os         1 TL1      -0.332100
     16 C11         -3.7340     0.5720    -0.1080 ca         1 TL1       0.139100
     17 C12         -3.5790     1.5240     0.9270 ca         1 TL1      -0.186000
     18 C13         -4.6800     1.8810     1.7210 ca         1 TL1      -0.079000
     19 C14         -5.9380     1.3010     1.4940 ca         1 TL1      -0.125500
     20 C15         -6.1180     0.3450     0.4660 ca         1 TL1      -0.134400
     21 C16         -7.4660    -0.2580     0.1790 ce         1 TL1       0.660300
     22 N3          -7.7510    -0.8410    -0.9110 n2         1 TL1      -0.833100
     23 N4          -8.3830    -0.2690     1.1700 nv         1 TL1      -1.055700
     24 C17         -5.0030     0.0130    -0.3390 ca         1 TL1      -0.112500
     25 C18         -1.3260    -0.8220     0.8330 c5         1 TL1       0.122600
     26 O4           0.0100    -1.3560     0.7640 os         1 TL1      -0.424000
     27 C19          0.2980    -1.5700    -0.6360 c5         1 TL1       0.138300
     28 C20          4.5210     0.3960     0.3260 ca         1 TL1      -0.112500
     29 HN1          4.9600     2.8420     0.1630 hn         1 TL1       0.380900
     30 HN21         8.1370     2.7590     1.2660 hn         1 TL1       0.466250
     31 HN22         8.2250     1.0500     1.1210 hn         1 TL1       0.466250
     32 H3           7.7220    -0.3510    -0.6360 ha         1 TL1       0.124500
     33 H4           6.6460    -2.5140    -1.1490 ha         1 TL1       0.115500
     34 H5           4.2300    -2.8500    -0.7290 ha         1 TL1       0.117500
     35 H7           2.2600    -2.2960    -1.3750 h1         1 TL1       0.078700
     36 H81          2.7060     0.4370    -1.9580 h1         1 TL1       0.062200
     37 H82          1.7080    -0.5840    -3.0190 h1         1 TL1       0.062200
     38 H9          -0.8740    -0.7170    -2.3180 h1         1 TL1       0.085200
     39 H10         -1.0990     1.2300    -0.0540 h1         1 TL1       0.078700
     40 H12         -2.6310     2.0160     1.1220 ha         1 TL1       0.117500
     41 H13         -4.5610     2.6210     2.5100 ha         1 TL1       0.115500
     42 H14         -6.7750     1.6180     2.1130 ha         1 TL1       0.124500
     43 HN3         -8.7700    -0.9560    -0.9510 hn         1 TL1       0.380900
     44 HN41        -9.0570    -1.0240     1.1350 hn         1 TL1       0.466250
     45 HN42        -8.0200    -0.0640     2.0940 hn         1 TL1       0.466250
     46 H17         -5.1120    -0.7020    -1.1510 ha         1 TL1       0.140500
     47 H181        -1.4940    -0.3620     1.8160 h1         1 TL1       0.062200
     48 H182        -2.0440    -1.6410     0.6960 h1         1 TL1       0.062200
     49 H19         -0.0910    -2.5460    -0.9560 h1         1 TL1       0.085200
     50 H20          3.9070     1.1870     0.7500 ha         1 TL1       0.140500
@<TRIPOS>BOND
     1     1     2 2   
     2     1    29 1   
     3     2     3 1   
     4     2     4 1   
     5     3    30 1   
     6     3    31 1   
     7     4     5 ar  
     8     4    28 ar  
     9     5     6 ar  
    10     5    32 1   
    11     6     7 ar  
    12     6    33 1   
    13     7     8 ar  
    14     7    34 1   
    15     8     9 1   
    16     8    28 ar  
    17     9    10 1   
    18    10    11 1   
    19    10    27 1   
    20    10    35 1   
    21    11    12 1   
    22    11    36 1   
    23    11    37 1   
    24    12    13 1   
    25    13    14 1   
    26    13    27 1   
    27    13    38 1   
    28    14    15 1   
    29    14    25 1   
    30    14    39 1   
    31    15    16 1   
    32    16    17 ar  
    33    16    24 ar  
    34    17    18 ar  
    35    17    40 1   
    36    18    19 ar  
    37    18    41 1   
    38    19    20 ar  
    39    19    42 1   
    40    20    21 1   
    41    20    24 ar  
    42    21    22 2   
    43    21    23 1   
    44    22    43 1   
    45    23    44 1   
    46    23    45 1   
    47    24    46 1   
    48    25    26 1   
    49    25    47 1   
    50    25    48 1   
    51    26    27 1   
    52    27    49 1   
    53    28    50 1   
@<TRIPOS>SUBSTRUCTURE
     1 TL1         1 TEMP              0 ****  ****    0 ROOT
