@<TRIPOS>MOLECULE
TL1
   50    53     1     0     0
SMALL
bcc


@<TRIPOS>ATOM
      1 N1           3.4170     3.3690     1.4050 n2         1 TL1      -0.833100
      2 C1           4.4190     2.5870     1.2710 ce         1 TL1       0.660300
      3 N2           5.6090     2.8720     1.8690 nv         1 TL1      -0.945300
      4 C2           4.4210     1.3520     0.4340 ca         1 TL1      -0.134400
      5 C3           5.5430     0.9930    -0.3140 ca         1 TL1      -0.143500
      6 C4           5.4930    -0.1380    -1.1110 ca         1 TL1      -0.097000
      7 C5           4.3530    -0.9300    -1.1690 ca         1 TL1      -0.204000
      8 C6           3.2390    -0.5790    -0.4100 ca         1 TL1       0.139100
      9 O1           2.0920    -1.2850    -0.3540 os         1 TL1      -0.308900
     10 C7           1.9090    -2.4120    -1.1850 c5         1 TL1       0.098100
     11 C8           1.5350    -2.0190    -2.6040 c5         1 TL1       0.099400
     12 O2           0.1810    -1.5920    -2.5350 os         1 TL1      -0.377600
     13 C9          -0.4600    -2.2600    -1.4740 c5         1 TL1       0.115100
     14 C10         -0.9830    -1.3390    -0.3770 c5         1 TL1       0.098100
     15 O3          -2.3310    -1.0140    -0.6320 os         1 TL1      -0.308900
     16 C11         -2.9260    -0.0240     0.0700 ca         1 TL1       0.139100
     17 C12         -2.2960     0.7400     1.0490 ca         1 TL1      -0.204000
     18 C13         -3.0140     1.7360     1.6990 ca         1 TL1      -0.097000
     19 C14         -4.3450     1.9730     1.4010 ca         1 TL1      -0.143500
     20 C15         -4.9770     1.2040     0.4220 ca         1 TL1      -0.134400
     21 C16         -6.4080     1.4200     0.0620 ce         1 TL1       0.660300
     22 N3          -6.7950     1.1210    -1.1180 n2         1 TL1      -0.833100
     23 N4          -7.1740     1.9760     1.0440 nv         1 TL1      -0.945300
     24 C17         -4.2610     0.2180    -0.2420 ca         1 TL1      -0.130500
     25 C18         -0.7860    -2.1930     0.8800 c5         1 TL1       0.099400
     26 O4           0.3460    -3.0100     0.6330 os         1 TL1      -0.377600
     27 C19          0.6040    -3.0830    -0.7420 c5         1 TL1       0.115100
     28 C20          3.2780     0.5680     0.3810 ca         1 TL1      -0.130500
     29 HN1          2.6490     3.0740     0.8140 hn         1 TL1       0.380900
     30 HN21         5.6070     3.6340     2.5280 hn         1 TL1       0.411050
     31 HN22         6.2180     2.1100     2.1140 hn         1 TL1       0.411050
     32 H3           6.4370     1.6010    -0.2930 ha         1 TL1       0.142500
     33 H4           6.3520    -0.4130    -1.7080 ha         1 TL1       0.133500
     34 H5           4.3550    -1.8070    -1.8020 ha         1 TL1       0.135500
     35 H7           2.7660    -3.0900    -1.1390 h1         1 TL1       0.078700
     36 H81          2.1400    -1.2100    -3.0150 h1         1 TL1       0.062200
     37 H82          1.6430    -2.8880    -3.2640 h1         1 TL1       0.062200
     38 H9          -1.2770    -2.8830    -1.8540 h1         1 TL1       0.085200
     39 H10         -0.3670    -0.4340    -0.3430 h1         1 TL1       0.078700
     40 H12         -1.2620     0.5830     1.3220 ha         1 TL1       0.135500
     41 H13         -2.5160     2.3340     2.4510 ha         1 TL1       0.133500
     42 H14         -4.8730     2.7660     1.9130 ha         1 TL1       0.142500
     43 HN3         -7.7920     1.2830    -1.2300 hn         1 TL1       0.380900
     44 HN41        -8.1710     1.9980     0.8980 hn         1 TL1       0.411050
     45 HN42        -6.9100     1.8260     2.0040 hn         1 TL1       0.411050
     46 H17         -4.7470    -0.3770    -1.0050 ha         1 TL1       0.158500
     47 H181        -0.6020    -1.6050     1.7800 h1         1 TL1       0.062200
     48 H182        -1.6790    -2.8070     1.0510 h1         1 TL1       0.062200
     49 H19          0.6190    -4.1270    -1.0710 h1         1 TL1       0.085200
     50 H20          2.4090     0.8210     0.9780 ha         1 TL1       0.158500
@<TRIPOS>BOND
     1     1     2 2   
     2     1    29 1   
     3     2     3 1   
     4     2     4 1   
     5     3    30 1   
     6     3    31 1   
     7     4     5 ar  
     8     4    28 ar  
     9     5     6 ar  
    10     5    32 1   
    11     6     7 ar  
    12     6    33 1   
    13     7     8 ar  
    14     7    34 1   
    15     8     9 1   
    16     8    28 ar  
    17     9    10 1   
    18    10    11 1   
    19    10    27 1   
    20    10    35 1   
    21    11    12 1   
    22    11    36 1   
    23    11    37 1   
    24    12    13 1   
    25    13    14 1   
    26    13    27 1   
    27    13    38 1   
    28    14    15 1   
    29    14    25 1   
    30    14    39 1   
    31    15    16 1   
    32    16    17 ar  
    33    16    24 ar  
    34    17    18 ar  
    35    17    40 1   
    36    18    19 ar  
    37    18    41 1   
    38    19    20 ar  
    39    19    42 1   
    40    20    21 1   
    41    20    24 ar  
    42    21    22 2   
    43    21    23 1   
    44    22    43 1   
    45    23    44 1   
    46    23    45 1   
    47    24    46 1   
    48    25    26 1   
    49    25    47 1   
    50    25    48 1   
    51    26    27 1   
    52    27    49 1   
    53    28    50 1   
@<TRIPOS>SUBSTRUCTURE
     1 TL1         1 TEMP              0 ****  ****    0 ROOT
