@<TRIPOS>MOLECULE
TL2
   50    53     1     0     0
SMALL
abcg2


@<TRIPOS>ATOM
      1 N           -7.5160     2.2840     1.1650 n2         1 TL2      -0.830100
      2 C1          -7.1790     1.4030     0.3030 ce         1 TL2       0.664800
      3 C2          -5.8490     0.7530     0.4260 ca         1 TL2      -0.182900
      4 C3          -5.2020     0.7300     1.6640 ca         1 TL2      -0.039500
      5 C4          -3.9660     0.1350     1.8120 ca         1 TL2      -0.182500
      6 C5          -5.2020     0.1740    -0.6590 ca         1 TL2      -0.039500
      7 C6          -3.9540    -0.4230    -0.5280 ca         1 TL2      -0.182500
      8 C7          -3.3310    -0.4520     0.7150 ca         1 TL2       0.160100
      9 O8          -2.1370    -1.0260     0.9620 os         1 TL2      -0.340100
     10 C9          -1.4060    -1.6140    -0.1000 c5         1 TL2       0.115300
     11 C10         -0.6840    -0.5650    -0.9300 c5         1 TL2       0.120600
     12 O11          0.4380    -0.1920    -0.1500 os         1 TL2      -0.418000
     13 C11         -0.2400    -2.3550     0.5550 c5         1 TL2       0.133300
     14 C12          0.8530    -1.2790     0.6460 c5         1 TL2       0.106300
     15 C13          2.0810    -1.9920     0.0580 c5         1 TL2       0.119300
     16 O14          2.9480    -1.1650    -0.6730 os         1 TL2      -0.324100
     17 O15          0.2510    -3.3920    -0.2720 os         1 TL2      -0.444000
     18 C16          3.8760    -0.1850     1.3480 ca         1 TL2      -0.181000
     19 C17          1.4600    -3.0090    -0.8920 c5         1 TL2       0.150600
     20 C18          3.7680    -0.3030    -0.0350 ca         1 TL2       0.142100
     21 C20          4.5560     0.4960    -0.8600 ca         1 TL2      -0.095000
     22 N22          5.8060     2.5080    -2.4010 n2         1 TL2      -0.822100
     23 N23          7.4520     2.6930    -0.7240 nv         1 TL2      -1.078200
     24 C24          4.7740     0.7300     1.8820 ca         1 TL2      -0.082000
     25 C25          5.5660     1.5210     1.0670 ca         1 TL2      -0.130000
     26 C26          5.4570     1.4020    -0.3190 ca         1 TL2      -0.109900
     27 N27         -7.9210     1.0200    -0.7800 nv         1 TL2      -1.074200
     28 HN          -8.4580     2.6250     0.9940 hn         1 TL2       0.370400
     29 H3          -5.6840     1.1790     2.5220 ha         1 TL2       0.128000
     30 H4          -3.4850     0.1120     2.7820 ha         1 TL2       0.124000
     31 H5          -5.6490     0.1960    -1.6450 ha         1 TL2       0.128000
     32 H6          -3.4950    -0.8520    -1.4080 ha         1 TL2       0.124000
     33 H9          -2.0320    -2.2880    -0.6930 h1         1 TL2       0.081700
     34 H101        -0.3910    -0.9910    -1.8970 h1         1 TL2       0.065700
     35 H102        -1.2790     0.3270    -1.1330 h1         1 TL2       0.065700
     36 H11         -0.5270    -2.7790     1.5200 h1         1 TL2       0.100700
     37 H12          1.0160    -0.9250     1.6650 h1         1 TL2       0.093700
     38 H13          2.6120    -2.5160     0.8620 h1         1 TL2       0.059700
     39 H16          3.2820    -0.7860     2.0220 ha         1 TL2       0.114000
     40 H171         1.2920    -2.5590    -1.8790 h1         1 TL2       0.067200
     41 H172         2.0790    -3.8960    -1.0270 h1         1 TL2       0.067200
     42 H20          4.4700     0.4020    -1.9350 ha         1 TL2       0.149000
     43 H22          6.4640     3.0610    -2.9440 hn         1 TL2       0.370400
     44 H231         7.9040     2.1450    -0.0100 hn         1 TL2       0.462000
     45 H232         8.0930     3.1470    -1.3550 hn         1 TL2       0.462000
     46 H24          4.8480     0.8250     2.9580 ha         1 TL2       0.113000
     47 H25          6.2420     2.2380     1.5140 ha         1 TL2       0.120000
     48 H271        -7.7960     0.0860    -1.1360 hn         1 TL2       0.457500
     49 H272        -8.8800     1.3300    -0.8090 hn         1 TL2       0.457500
     50 C21          6.2740     2.2400    -1.2430 ce         1 TL2       0.658800
@<TRIPOS>BOND
     1     1     2 2   
     2     1    28 1   
     3     2     3 1   
     4     2    27 1   
     5     3     4 ar  
     6     3     6 ar  
     7     4     5 ar  
     8     4    29 1   
     9     5     8 ar  
    10     5    30 1   
    11     6     7 ar  
    12     6    31 1   
    13     7     8 ar  
    14     7    32 1   
    15     8     9 1   
    16     9    10 1   
    17    10    11 1   
    18    10    13 1   
    19    10    33 1   
    20    11    12 1   
    21    11    34 1   
    22    11    35 1   
    23    12    14 1   
    24    13    14 1   
    25    13    17 1   
    26    13    36 1   
    27    14    15 1   
    28    14    37 1   
    29    15    16 1   
    30    15    19 1   
    31    15    38 1   
    32    16    20 1   
    33    17    19 1   
    34    18    20 ar  
    35    18    24 ar  
    36    18    39 1   
    37    19    40 1   
    38    19    41 1   
    39    20    21 ar  
    40    21    26 ar  
    41    21    42 1   
    42    22    43 1   
    43    22    50 2   
    44    23    44 1   
    45    23    45 1   
    46    23    50 1   
    47    24    25 ar  
    48    24    46 1   
    49    25    26 ar  
    50    25    47 1   
    51    26    50 1   
    52    27    48 1   
    53    27    49 1   
@<TRIPOS>SUBSTRUCTURE
     1 TL2         1 TEMP              0 ****  ****    0 ROOT
