@<TRIPOS>MOLECULE
TL2
   50    53     1     0     0
SMALL
No Charge or Current Charge


@<TRIPOS>ATOM
      1 N           -7.2070     2.6130     0.3980 n2         1 TL2      -0.830100
      2 C1          -6.5840     1.8350    -0.3860 ce         1 TL2       0.664800
      3 C2          -5.4460     0.9650     0.0520 ca         1 TL2      -0.182900
      4 C3          -5.2410     0.6990     1.4230 ca         1 TL2      -0.039500
      5 C4          -4.1580    -0.0900     1.8460 ca         1 TL2      -0.182500
      6 C5          -4.5130     0.4500    -0.8770 ca         1 TL2      -0.039500
      7 C6          -3.4280    -0.3390    -0.4530 ca         1 TL2      -0.182500
      8 C7          -3.2400    -0.6160     0.9250 ca         1 TL2       0.160100
      9 O8          -2.2110    -1.3870     1.4610 os         1 TL2      -0.340100
     10 C9          -1.1510    -1.7260     0.5180 c5         1 TL2       0.115300
     11 C10         -0.2910    -0.4600     0.1970 c5         1 TL2       0.120600
     12 O11          0.7920    -0.4830     1.1490 os         1 TL2      -0.418000
     13 C11         -0.1520    -2.6770     1.2710 c5         1 TL2       0.133300
     14 C12          1.1710    -1.8630     1.3900 c5         1 TL2       0.106300
     15 C13          2.1010    -2.4530     0.2430 c5         1 TL2       0.119300
     16 O14          2.5470    -1.4130    -0.6800 os         1 TL2      -0.324100
     17 O15          0.1520    -3.8040     0.4170 os         1 TL2      -0.444000
     18 C16          4.2110    -0.7530     1.0600 ca         1 TL2      -0.181000
     19 C17          1.1350    -3.3800    -0.5530 c5         1 TL2       0.150600
     20 C18          3.5210    -0.5610    -0.1640 ca         1 TL2       0.142100
     21 C20          3.8350     0.5620    -0.9490 ca         1 TL2      -0.095000
     22 N22          4.3420     3.0860    -2.3530 n2         1 TL2      -0.822100
     23 N23          6.2710     3.3600    -1.2320 nv         1 TL2      -1.078200
     24 C24          5.1740     0.1790     1.4760 ca         1 TL2      -0.082000
     25 C25          5.4720     1.2990     0.6830 ca         1 TL2      -0.130000
     26 C26          4.8180     1.5000    -0.5550 ca         1 TL2      -0.109900
     27 N27         -7.0410     1.6920    -1.6480 nv         1 TL2      -1.074200
     28 HN          -7.8000     3.2260    -0.1720 hn         1 TL2       0.370400
     29 H3          -5.9280     1.0940     2.1680 ha         1 TL2       0.128000
     30 H4          -4.0250    -0.2920     2.9050 ha         1 TL2       0.124000
     31 H5          -4.6140     0.6650    -1.9400 ha         1 TL2       0.128000
     32 H6          -2.7570    -0.7110    -1.2190 ha         1 TL2       0.124000
     33 H9          -1.5700    -2.2190    -0.3680 h1         1 TL2       0.081700
     34 H101         0.1220    -0.5090    -0.8190 h1         1 TL2       0.065700
     35 H102        -0.8450     0.4830     0.2930 h1         1 TL2       0.065700
     36 H11         -0.5410    -3.0240     2.2380 h1         1 TL2       0.100700
     37 H12          1.6350    -1.9550     2.3810 h1         1 TL2       0.093700
     38 H13          2.9450    -3.0420     0.6220 h1         1 TL2       0.059700
     39 H16          4.0250    -1.6010     1.7100 ha         1 TL2       0.114000
     40 H171         0.6310    -2.8450    -1.3690 h1         1 TL2       0.067200
     41 H172         1.6450    -4.2560    -0.9740 h1         1 TL2       0.067200
     42 H20          3.3020     0.6990    -1.8870 ha         1 TL2       0.149000
     43 H22          4.6380     4.0260    -2.6370 hn         1 TL2       0.370400
     44 H231         6.9590     2.8570    -0.6840 hn         1 TL2       0.462000
     45 H232         6.6390     3.8480    -2.0400 hn         1 TL2       0.462000
     46 H24          5.6920     0.0360     2.4230 ha         1 TL2       0.113000
     47 H25          6.2090     2.0110     1.0470 ha         1 TL2       0.120000
     48 H271        -6.7320     0.8490    -2.1180 hn         1 TL2       0.457500
     49 H272        -8.0110     1.9380    -1.8020 hn         1 TL2       0.457500
     50 C21          5.1020     2.7050    -1.4110 ce         1 TL2       0.658800
@<TRIPOS>BOND
     1     1     2 2   
     2     1    28 1   
     3     2     3 1   
     4     2    27 1   
     5     3     4 ar  
     6     3     6 ar  
     7     4     5 ar  
     8     4    29 1   
     9     5     8 ar  
    10     5    30 1   
    11     6     7 ar  
    12     6    31 1   
    13     7     8 ar  
    14     7    32 1   
    15     8     9 1   
    16     9    10 1   
    17    10    11 1   
    18    10    13 1   
    19    10    33 1   
    20    11    12 1   
    21    11    34 1   
    22    11    35 1   
    23    12    14 1   
    24    13    14 1   
    25    13    17 1   
    26    13    36 1   
    27    14    15 1   
    28    14    37 1   
    29    15    16 1   
    30    15    19 1   
    31    15    38 1   
    32    16    20 1   
    33    17    19 1   
    34    18    20 ar  
    35    18    24 ar  
    36    18    39 1   
    37    19    40 1   
    38    19    41 1   
    39    20    21 ar  
    40    21    26 ar  
    41    21    42 1   
    42    22    43 1   
    43    22    50 2   
    44    23    44 1   
    45    23    45 1   
    46    23    50 1   
    47    24    25 ar  
    48    24    46 1   
    49    25    26 ar  
    50    25    47 1   
    51    26    50 1   
    52    27    48 1   
    53    27    49 1   
@<TRIPOS>SUBSTRUCTURE
     1 TL2         1 TEMP              0 ****  ****    0 ROOT
