@<TRIPOS>MOLECULE
TL3
   50    53     1     0     0
SMALL
abcg2


@<TRIPOS>ATOM
      1 N1           6.1520     3.4860     0.8730 n2         1 TL3      -0.838600
      2 C1           5.9930     2.5420     0.0250 ce         1 TL3       0.666800
      3 N2           6.8720     2.3920    -1.0070 nv         1 TL3      -1.054700
      4 C2           4.9150     1.5190     0.0850 ca         1 TL3      -0.208400
      5 C3           3.6630     1.8480     0.6070 ca         1 TL3      -0.044500
      6 C4           2.6520     0.9120     0.6790 ca         1 TL3      -0.179000
      7 C5           2.8710    -0.3950     0.2390 ca         1 TL3       0.158600
      8 O1           1.8310    -1.2380     0.3700 os         1 TL3      -0.333600
      9 C6           1.9240    -2.5680    -0.0970 c5         1 TL3       0.118800
     10 C7           1.7480    -2.6670    -1.6030 c5         1 TL3       0.124600
     11 O2           0.3550    -2.5100    -1.8430 os         1 TL3      -0.425000
     12 C8          -0.3640    -2.9000    -0.6980 c5         1 TL3       0.139300
     13 C9          -1.1370    -1.7640    -0.0330 c5         1 TL3       0.118800
     14 O3          -2.4720    -1.7710    -0.4980 os         1 TL3      -0.333600
     15 C10         -3.2650    -0.7040    -0.2770 ca         1 TL3       0.158600
     16 C11         -2.8990     0.4170     0.4650 ca         1 TL3      -0.179000
     17 C12         -3.7980     1.4600     0.6250 ca         1 TL3      -0.044500
     18 C13         -5.0730     1.4150     0.0730 ca         1 TL3      -0.208400
     19 C14         -6.0050     2.5550     0.2750 ce         1 TL3       0.666800
     20 N3          -5.5190     3.7080     0.5380 n2         1 TL3      -0.838600
     21 N4          -7.3300     2.2640     0.1080 nv         1 TL3      -1.054700
     22 C15         -5.4240     0.2860    -0.6700 ca         1 TL3      -0.044500
     23 C16         -4.5360    -0.7580    -0.8480 ca         1 TL3      -0.179000
     24 C17         -1.0070    -2.0900     1.4600 c5         1 TL3       0.124600
     25 O4           0.1640    -2.8750     1.6150 os         1 TL3      -0.425000
     26 C18          0.6540    -3.2900     0.3730 c5         1 TL3       0.139300
     27 C19          4.1150    -0.7410    -0.2830 ca         1 TL3      -0.179000
     28 C20          5.1180     0.2160    -0.3580 ca         1 TL3      -0.044500
     29 HN1          5.4920     3.3980     1.6370 hn         1 TL3       0.378900
     30 HN21         7.5310     3.1420    -1.1410 hn         1 TL3       0.463250
     31 HN22         6.5430     1.9730    -1.8600 hn         1 TL3       0.463250
     32 H3           3.4600     2.8580     0.9430 ha         1 TL3       0.125000
     33 H4           1.6820     1.1860     1.0750 ha         1 TL3       0.124250
     34 H6           2.8380    -3.0530     0.2580 h1         1 TL3       0.080700
     35 H71          2.2920    -1.9040    -2.1620 h1         1 TL3       0.062450
     36 H72          2.0980    -3.6480    -1.9450 h1         1 TL3       0.062450
     37 H8          -1.0470    -3.7220    -0.9370 h1         1 TL3       0.088200
     38 H9          -0.6590    -0.8110    -0.2780 h1         1 TL3       0.080700
     39 H11         -1.9280     0.5000     0.9340 ha         1 TL3       0.124250
     40 H12         -3.5020     2.3240     1.2050 ha         1 TL3       0.125000
     41 HN3         -6.2570     4.3900     0.6890 hn         1 TL3       0.378900
     42 HN41        -7.6430     1.3280     0.3110 hn         1 TL3       0.463250
     43 HN42        -7.9920     2.9720     0.3860 hn         1 TL3       0.463250
     44 H15         -6.3950     0.2180    -1.1440 ha         1 TL3       0.125000
     45 H16         -4.8210    -1.6210    -1.4360 ha         1 TL3       0.124250
     46 H171        -0.9200    -1.1970     2.0820 h1         1 TL3       0.062450
     47 H172        -1.8860    -2.6510     1.7980 h1         1 TL3       0.062450
     48 H18          0.8500    -4.3660     0.3880 h1         1 TL3       0.088200
     49 H19          4.3320    -1.7420    -0.6300 ha         1 TL3       0.124250
     50 H20          6.0800    -0.0810    -0.7560 ha         1 TL3       0.125000
@<TRIPOS>BOND
     1     1     2 2   
     2     1    29 1   
     3     2     3 1   
     4     2     4 1   
     5     3    30 1   
     6     3    31 1   
     7     4     5 ar  
     8     4    28 ar  
     9     5     6 ar  
    10     5    32 1   
    11     6     7 ar  
    12     6    33 1   
    13     7     8 1   
    14     7    27 ar  
    15     8     9 1   
    16     9    10 1   
    17     9    26 1   
    18     9    34 1   
    19    10    11 1   
    20    10    35 1   
    21    10    36 1   
    22    11    12 1   
    23    12    13 1   
    24    12    26 1   
    25    12    37 1   
    26    13    14 1   
    27    13    24 1   
    28    13    38 1   
    29    14    15 1   
    30    15    16 ar  
    31    15    23 ar  
    32    16    17 ar  
    33    16    39 1   
    34    17    18 ar  
    35    17    40 1   
    36    18    19 1   
    37    18    22 ar  
    38    19    20 2   
    39    19    21 1   
    40    20    41 1   
    41    21    42 1   
    42    21    43 1   
    43    22    23 ar  
    44    22    44 1   
    45    23    45 1   
    46    24    25 1   
    47    24    46 1   
    48    24    47 1   
    49    25    26 1   
    50    26    48 1   
    51    27    28 ar  
    52    27    49 1   
    53    28    50 1   
@<TRIPOS>SUBSTRUCTURE
     1 TL3         1 TEMP              0 ****  ****    0 ROOT
