@<TRIPOS>MOLECULE
TL3
   50    53     1     0     0
SMALL
No Charge or Current Charge


@<TRIPOS>ATOM
      1 N1           8.2670     2.1860     0.3060 n2         1 TL3      -0.838600
      2 C1           7.8240     1.0230     0.0670 ce         1 TL3       0.666800
      3 N2           8.6640     0.1280    -0.4820 nv         1 TL3      -1.054700
      4 C2           6.3840     0.6450     0.1900 ca         1 TL3      -0.208400
      5 C3           5.3710     1.6310     0.1400 ca         1 TL3      -0.044500
      6 C4           4.0210     1.2760     0.2970 ca         1 TL3      -0.179000
      7 C5           3.6560    -0.0620     0.5040 ca         1 TL3       0.158600
      8 O1           2.3180    -0.3590     0.6720 os         1 TL3      -0.333600
      9 C6           1.8860    -1.3750    -0.2920 c5         1 TL3       0.118800
     10 C7           1.8400    -0.7470    -1.7260 c5         1 TL3       0.124600
     11 O2           0.5160    -0.1880    -1.8340 os         1 TL3      -0.425000
     12 C8          -0.3810    -1.1570    -1.2560 c5         1 TL3       0.139300
     13 C9          -1.6090    -0.4160    -0.6370 c5         1 TL3       0.118800
     14 O3          -2.7960    -0.9670    -1.2820 os         1 TL3      -0.333600
     15 C10         -3.9450    -0.4140    -0.7490 ca         1 TL3       0.158600
     16 C11         -4.1520     0.9780    -0.6830 ca         1 TL3      -0.179000
     17 C12         -5.3480     1.4890    -0.1490 ca         1 TL3      -0.044500
     18 C13         -6.3550     0.6220     0.3330 ca         1 TL3      -0.208400
     19 C14         -7.6370     1.1790     0.8680 ce         1 TL3       0.666800
     20 N3          -8.0320     2.3620     0.6370 n2         1 TL3      -0.838600
     21 N4          -8.3340     0.4230     1.7380 nv         1 TL3      -1.054700
     22 C15         -6.1540    -0.7740     0.2170 ca         1 TL3      -0.044500
     23 C16         -4.9590    -1.2810    -0.3200 ca         1 TL3      -0.179000
     24 C17         -1.5640    -0.8710     0.8570 c5         1 TL3       0.124600
     25 O4          -0.1650    -1.0850     1.1200 os         1 TL3      -0.425000
     26 C18          0.3770    -1.7600    -0.0380 c5         1 TL3       0.139300
     27 C19          4.6580    -1.0460     0.6030 ca         1 TL3      -0.179000
     28 C20          6.0110    -0.6950     0.4470 ca         1 TL3      -0.044500
     29 HN1          7.5190     2.7180     0.7690 hn         1 TL3       0.378900
     30 HN21         9.5160     0.5410    -0.8390 hn         1 TL3       0.463250
     31 HN22         8.2300    -0.5730    -1.0710 hn         1 TL3       0.463250
     32 H3           5.6210     2.6760    -0.0360 ha         1 TL3       0.125000
     33 H4           3.2500     2.0410     0.2480 ha         1 TL3       0.124250
     34 H6           2.5290    -2.2620    -0.2470 h1         1 TL3       0.080700
     35 H71          2.5920     0.0340    -1.8950 h1         1 TL3       0.062450
     36 H72          1.9630    -1.5180    -2.4980 h1         1 TL3       0.062450
     37 H8          -0.6480    -1.9190    -2.0020 h1         1 TL3       0.088200
     38 H9          -1.5330     0.6710    -0.7610 h1         1 TL3       0.080700
     39 H11         -3.4080     1.6720    -1.0630 ha         1 TL3       0.124250
     40 H12         -5.4870     2.5680    -0.1080 ha         1 TL3       0.125000
     41 HN3         -9.0110     2.4310     0.9360 hn         1 TL3       0.378900
     42 HN41        -7.8190    -0.3590     2.1250 hn         1 TL3       0.463250
     43 HN42        -8.9100     0.9250     2.4040 hn         1 TL3       0.463250
     44 H15         -6.9260    -1.4760     0.5270 ha         1 TL3       0.125000
     45 H16         -4.8160    -2.3560    -0.4020 ha         1 TL3       0.124250
     46 H171        -1.9640    -0.1130     1.5430 h1         1 TL3       0.062450
     47 H172        -2.1040    -1.8150     1.0130 h1         1 TL3       0.062450
     48 H18          0.2170    -2.8440     0.0480 h1         1 TL3       0.088200
     49 H19          4.4030    -2.0780     0.8250 ha         1 TL3       0.124250
     50 H20          6.7690    -1.4700     0.5450 ha         1 TL3       0.125000
@<TRIPOS>BOND
     1     1     2 2   
     2     1    29 1   
     3     2     3 1   
     4     2     4 1   
     5     3    30 1   
     6     3    31 1   
     7     4     5 ar  
     8     4    28 ar  
     9     5     6 ar  
    10     5    32 1   
    11     6     7 ar  
    12     6    33 1   
    13     7     8 1   
    14     7    27 ar  
    15     8     9 1   
    16     9    10 1   
    17     9    26 1   
    18     9    34 1   
    19    10    11 1   
    20    10    35 1   
    21    10    36 1   
    22    11    12 1   
    23    12    13 1   
    24    12    26 1   
    25    12    37 1   
    26    13    14 1   
    27    13    24 1   
    28    13    38 1   
    29    14    15 1   
    30    15    16 ar  
    31    15    23 ar  
    32    16    17 ar  
    33    16    39 1   
    34    17    18 ar  
    35    17    40 1   
    36    18    19 1   
    37    18    22 ar  
    38    19    20 2   
    39    19    21 1   
    40    20    41 1   
    41    21    42 1   
    42    21    43 1   
    43    22    23 ar  
    44    22    44 1   
    45    23    45 1   
    46    24    25 1   
    47    24    46 1   
    48    24    47 1   
    49    25    26 1   
    50    26    48 1   
    51    27    28 ar  
    52    27    49 1   
    53    28    50 1   
@<TRIPOS>SUBSTRUCTURE
     1 TL3         1 TEMP              0 ****  ****    0 ROOT
