@<TRIPOS>MOLECULE
TL4
   50    53     1     0     0
SMALL
No Charge or Current Charge


@<TRIPOS>ATOM
      1 C4          -6.5000    -0.2130     0.2150 ca         1 TL4      -0.182900
      2 C5          -5.6200    -1.0420     0.9490 ca         1 TL4      -0.039000
      3 C6          -4.2470    -0.7500     1.0130 ca         1 TL4      -0.183000
      4 C7          -3.7260     0.3680     0.3480 ca         1 TL4       0.158100
      5 O8          -2.3740     0.6260     0.4560 os         1 TL4      -0.328100
      6 C9          -1.7570     0.7360    -0.8680 c5         1 TL4       0.116300
      7 C10         -1.7050    -0.6800    -1.5370 c5         1 TL4       0.117600
      8 O11         -0.4520    -1.2420    -1.1010 os         1 TL4      -0.427000
      9 C12          0.5180    -0.1780    -1.1820 c5         1 TL4       0.134300
     10 C13          1.6230    -0.4040    -0.1000 c5         1 TL4       0.126300
     11 O14          2.8940    -0.4410    -0.8170 os         1 TL4      -0.334100
     12 C15          3.9980    -0.5210     0.0240 ca         1 TL4       0.135100
     13 C16          3.9910    -1.1590     1.2870 ca         1 TL4      -0.183000
     14 C17          5.1610    -1.1910     2.0620 ca         1 TL4      -0.083000
     15 C18          6.3460    -0.6100     1.5840 ca         1 TL4      -0.130000
     16 C19          6.3890    -0.0020     0.3060 ca         1 TL4      -0.109900
     17 C20          7.6420     0.6430    -0.2190 ce         1 TL4       0.658800
     18 N21          7.6520     1.4570    -1.1940 n2         1 TL4      -0.824100
     19 N22          8.8290     0.2690     0.3100 nv         1 TL4      -1.076200
     20 C23          5.1950     0.0390    -0.4520 ca         1 TL4      -0.096000
     21 C24          1.5320     0.9020     0.7550 c5         1 TL4       0.128600
     22 O25          0.1540     1.3040     0.6500 os         1 TL4      -0.423000
     23 C26         -0.2310     1.1080    -0.7300 c5         1 TL4       0.143300
     24 C27         -4.5990     1.2300    -0.3440 ca         1 TL4      -0.183000
     25 C28         -5.9740     0.9420    -0.4100 ca         1 TL4      -0.039000
     26 N1          -8.5400    -1.2800     1.0150 n2         1 TL4      -0.830100
     27 C2          -7.9670    -0.5130     0.1830 ce         1 TL4       0.665800
     28 N3          -8.6880    -0.0360    -0.8530 nv         1 TL4      -1.075200
     29 H5          -5.9980    -1.9210     1.4670 ha         1 TL4       0.128000
     30 H6          -3.5810    -1.4000     1.5750 ha         1 TL4       0.122000
     31 H9          -2.2840     1.4700    -1.4900 h1         1 TL4       0.074700
     32 H101        -2.5330    -1.3410    -1.2480 h1         1 TL4       0.062700
     33 H102        -1.6950    -0.5980    -2.6320 h1         1 TL4       0.062700
     34 H12          0.9060    -0.0970    -2.2070 h1         1 TL4       0.088700
     35 H13          1.4410    -1.3250     0.4680 h1         1 TL4       0.081700
     36 H16          3.1050    -1.6410     1.6870 ha         1 TL4       0.120000
     37 H17          5.1500    -1.6690     3.0400 ha         1 TL4       0.114000
     38 H18          7.2290    -0.6340     2.2190 ha         1 TL4       0.121000
     39 H21          8.5740     1.9050    -1.2210 hn         1 TL4       0.370400
     40 H221         8.7970    -0.5770     0.8670 hn         1 TL4       0.461500
     41 H222         9.6360     0.3540    -0.2960 hn         1 TL4       0.461500
     42 H23          5.1900     0.5130    -1.4310 ha         1 TL4       0.150000
     43 H241         1.7940     0.7390     1.8090 h1         1 TL4       0.063200
     44 H242         2.1680     1.7000     0.3490 h1         1 TL4       0.063200
     45 H26          0.0580     1.9830    -1.3290 h1         1 TL4       0.081700
     46 H27         -4.2270     2.1380    -0.8110 ha         1 TL4       0.122000
     47 H28         -6.6270     1.6370    -0.9350 ha         1 TL4       0.128000
     48 HN1         -9.5530    -1.1700     0.9000 hn         1 TL4       0.370400
     49 HN31        -8.1370     0.2880    -1.6400 hn         1 TL4       0.458500
     50 HN32        -9.5190    -0.5610    -1.0990 hn         1 TL4       0.458500
@<TRIPOS>BOND
     1     1     2 ar  
     2     1    25 ar  
     3     1    27 1   
     4     2     3 ar  
     5     2    29 1   
     6     3     4 ar  
     7     3    30 1   
     8     4     5 1   
     9     4    24 ar  
    10     5     6 1   
    11     6     7 1   
    12     6    23 1   
    13     6    31 1   
    14     7     8 1   
    15     7    32 1   
    16     7    33 1   
    17     8     9 1   
    18     9    10 1   
    19     9    23 1   
    20     9    34 1   
    21    10    11 1   
    22    10    21 1   
    23    10    35 1   
    24    11    12 1   
    25    12    13 ar  
    26    12    20 ar  
    27    13    14 ar  
    28    13    36 1   
    29    14    15 ar  
    30    14    37 1   
    31    15    16 ar  
    32    15    38 1   
    33    16    17 1   
    34    16    20 ar  
    35    17    18 2   
    36    17    19 1   
    37    18    39 1   
    38    19    40 1   
    39    19    41 1   
    40    20    42 1   
    41    21    22 1   
    42    21    43 1   
    43    21    44 1   
    44    22    23 1   
    45    23    45 1   
    46    24    25 ar  
    47    24    46 1   
    48    25    47 1   
    49    26    27 2   
    50    26    48 1   
    51    27    28 1   
    52    28    49 1   
    53    28    50 1   
@<TRIPOS>SUBSTRUCTURE
     1 TL4         1 TEMP              0 ****  ****    0 ROOT
