@<TRIPOS>MOLECULE
TL4
   50    53     1     0     0
SMALL
abcg2


@<TRIPOS>ATOM
      1 C4          -5.2350    -1.0680     0.6710 ca         1 TL4      -0.182900
      2 C5          -4.0650    -1.1440     1.4290 ca         1 TL4      -0.039000
      3 C6          -2.9510    -0.4010     1.0990 ca         1 TL4      -0.183000
      4 C7          -2.9790     0.4600    -0.0020 ca         1 TL4       0.158100
      5 O8          -1.8500     1.1570    -0.2330 os         1 TL4      -0.328100
      6 C9          -1.7510     1.9830    -1.3750 c5         1 TL4       0.116300
      7 C10         -1.5000     1.1810    -2.6420 c5         1 TL4       0.117600
      8 O11         -0.1350     0.7870    -2.5790 os         1 TL4      -0.427000
      9 C12          0.5850     1.7320    -1.8250 c5         1 TL4       0.134300
     10 C13          1.2320     1.1700    -0.5640 c5         1 TL4       0.126300
     11 O14          2.5610     0.7950    -0.8460 os         1 TL4      -0.334100
     12 C15          3.2730     0.0950     0.0660 ca         1 TL4       0.135100
     13 C16          2.7660    -0.3820     1.2720 ca         1 TL4      -0.183000
     14 C17          3.5980    -1.1040     2.1180 ca         1 TL4      -0.083000
     15 C18          4.9160    -1.3610     1.7840 ca         1 TL4      -0.130000
     16 C19          5.4230    -0.8820     0.5750 ca         1 TL4      -0.109900
     17 C20          6.8400    -1.1180     0.1740 ce         1 TL4       0.658800
     18 N21          7.4070    -0.2710    -0.5960 n2         1 TL4      -0.824100
     19 N22          7.4230    -2.2200     0.7290 nv         1 TL4      -1.076200
     20 C23          4.6010    -0.1540    -0.2720 ca         1 TL4      -0.096000
     21 C24          1.1240     2.3510     0.4080 c5         1 TL4       0.128600
     22 O25         -0.0410     3.0680     0.0380 os         1 TL4      -0.423000
     23 C26         -0.4240     2.7410    -1.2680 c5         1 TL4       0.143300
     24 C27         -4.1400     0.5540    -0.7620 ca         1 TL4      -0.183000
     25 C28         -5.2510    -0.2060    -0.4190 ca         1 TL4      -0.039000
     26 N1          -6.5270    -2.2750     2.2660 n2         1 TL4      -0.830100
     27 C2          -6.4170    -1.8830     1.0540 ce         1 TL4       0.665800
     28 N3          -7.3270    -2.0990     0.0570 nv         1 TL4      -1.075200
     29 H5          -4.0290    -1.8050     2.2840 ha         1 TL4       0.128000
     30 H6          -2.0470    -0.4780     1.6900 ha         1 TL4       0.122000
     31 H9          -2.6100     2.6550    -1.4570 h1         1 TL4       0.074700
     32 H101        -2.1230     0.2900    -2.7310 h1         1 TL4       0.062700
     33 H102        -1.6880     1.8130    -3.5180 h1         1 TL4       0.062700
     34 H12          1.3480     2.2170    -2.4460 h1         1 TL4       0.088700
     35 H13          0.6510     0.3110    -0.2140 h1         1 TL4       0.081700
     36 H16          1.7420    -0.2100     1.5740 ha         1 TL4       0.120000
     37 H17          3.2030    -1.4650     3.0580 ha         1 TL4       0.114000
     38 H18          5.5430    -1.9090     2.4740 ha         1 TL4       0.121000
     39 H21          8.3560    -0.5560    -0.8210 hn         1 TL4       0.370400
     40 H221         6.8370    -3.0000     0.9770 hn         1 TL4       0.461500
     41 H222         8.3280    -2.4900     0.3760 hn         1 TL4       0.461500
     42 H23          4.9920     0.2220    -1.2090 ha         1 TL4       0.150000
     43 H241         1.0290     2.0460     1.4510 h1         1 TL4       0.063200
     44 H242         2.0140     2.9850     0.3170 h1         1 TL4       0.063200
     45 H26         -0.4870     3.6430    -1.8850 h1         1 TL4       0.081700
     46 H27         -4.2120     1.2140    -1.6150 ha         1 TL4       0.122000
     47 H28         -6.1450    -0.0930    -1.0190 ha         1 TL4       0.128000
     48 HN1         -7.3550    -2.8510     2.3910 hn         1 TL4       0.370400
     49 HN31        -6.9940    -2.1390    -0.8920 hn         1 TL4       0.458500
     50 HN32        -8.0690    -2.7530     0.2480 hn         1 TL4       0.458500
@<TRIPOS>BOND
     1     1     2 ar  
     2     1    25 ar  
     3     1    27 1   
     4     2     3 ar  
     5     2    29 1   
     6     3     4 ar  
     7     3    30 1   
     8     4     5 1   
     9     4    24 ar  
    10     5     6 1   
    11     6     7 1   
    12     6    23 1   
    13     6    31 1   
    14     7     8 1   
    15     7    32 1   
    16     7    33 1   
    17     8     9 1   
    18     9    10 1   
    19     9    23 1   
    20     9    34 1   
    21    10    11 1   
    22    10    21 1   
    23    10    35 1   
    24    11    12 1   
    25    12    13 ar  
    26    12    20 ar  
    27    13    14 ar  
    28    13    36 1   
    29    14    15 ar  
    30    14    37 1   
    31    15    16 ar  
    32    15    38 1   
    33    16    17 1   
    34    16    20 ar  
    35    17    18 2   
    36    17    19 1   
    37    18    39 1   
    38    19    40 1   
    39    19    41 1   
    40    20    42 1   
    41    21    22 1   
    42    21    43 1   
    43    21    44 1   
    44    22    23 1   
    45    23    45 1   
    46    24    25 ar  
    47    24    46 1   
    48    25    47 1   
    49    26    27 2   
    50    26    48 1   
    51    27    28 1   
    52    28    49 1   
    53    28    50 1   
@<TRIPOS>SUBSTRUCTURE
     1 TL4         1 TEMP              0 ****  ****    0 ROOT
