@<TRIPOS>MOLECULE
TL5
   31    31     1     0     0
SMALL
abcg2


@<TRIPOS>ATOM
      1 O1          -7.1610    40.8820    32.5050 o          1 TL5      -0.488100
      2 C1          -6.3390    40.4990    31.6910 c          1 TL5       0.636900
      3 C2          -6.5950    40.0600    30.3320 ce         1 TL5      -0.260400
      4 C9          -7.9890    40.0300    29.7930 c3         1 TL5      -0.013900
      5 S1          -4.5850    40.4230    32.0690 ss         1 TL5      -0.370600
      6 C4          -4.1380    39.7790    30.3860 c5         1 TL5       0.140400
      7 C3          -5.4740    39.7080    29.6740 c2         1 TL5       0.132900
      8 O2          -5.5060    39.2780    28.4040 oh         1 TL5      -0.514100
      9 C10         -3.5580    38.3550    30.5060 c3         1 TL5      -0.073100
     10 C5          -3.2210    40.7320    29.6460 c2         1 TL5      -0.241200
     11 C6          -2.0000    41.1640    30.0060 ce         1 TL5      -0.020200
     12 C11         -1.3060    40.7890    31.2850 c3         1 TL5      -0.064900
     13 C7          -1.3060    42.0780    29.0980 ce         1 TL5      -0.206000
     14 C8          -0.0920    42.6070    29.2880 c2         1 TL5      -0.185200
     15 C12          0.5820    43.5390    28.3340 c3         1 TL5      -0.063900
     16 H91         -8.4530    41.0160    29.8670 hc         1 TL5       0.050033
     17 H92         -7.9960    39.7210    28.7500 hc         1 TL5       0.050033
     18 H93         -8.6110    39.3360    30.3640 hc         1 TL5       0.050033
     19 HO2         -4.6210    39.0800    28.0670 ho         1 TL5       0.478000
     20 H101        -4.2700    37.6970    31.0050 hc         1 TL5       0.052700
     21 H102        -3.3410    37.9550    29.5140 hc         1 TL5       0.052700
     22 H103        -2.6270    38.3620    31.0680 hc         1 TL5       0.052700
     23 H5          -3.6170    41.1040    28.7060 ha         1 TL5       0.179000
     24 H111        -0.3860    40.2370    31.0730 hc         1 TL5       0.050367
     25 H112        -1.0210    41.6860    31.8380 hc         1 TL5       0.050367
     26 H113        -1.9190    40.1760    31.9390 hc         1 TL5       0.050367
     27 H7          -1.8470    42.3370    28.1910 ha         1 TL5       0.171000
     28 H8           0.4660    42.3610    30.1870 ha         1 TL5       0.171000
     29 H121        -0.0410    43.7410    27.4620 hc         1 TL5       0.044700
     30 H122         0.8170    44.4910    28.8200 hc         1 TL5       0.044700
     31 H123         1.5360    43.1250    27.9910 hc         1 TL5       0.044700
@<TRIPOS>BOND
     1     1     2 2   
     2     2     3 1   
     3     2     5 1   
     4     3     4 1   
     5     3     7 2   
     6     4    16 1   
     7     4    17 1   
     8     4    18 1   
     9     5     6 1   
    10     6     7 1   
    11     6     9 1   
    12     6    10 1   
    13     7     8 1   
    14     8    19 1   
    15     9    20 1   
    16     9    21 1   
    17     9    22 1   
    18    10    11 2   
    19    10    23 1   
    20    11    12 1   
    21    11    13 1   
    22    12    24 1   
    23    12    25 1   
    24    12    26 1   
    25    13    14 2   
    26    13    27 1   
    27    14    15 1   
    28    14    28 1   
    29    15    29 1   
    30    15    30 1   
    31    15    31 1   
@<TRIPOS>SUBSTRUCTURE
     1 TL5         1 TEMP              0 ****  ****    0 ROOT
