@<TRIPOS>MOLECULE
TL5
   31    31     1     0     0
SMALL
No Charge or Current Charge


@<TRIPOS>ATOM
      1 O1          -7.2450    40.9490    32.4590 o          1 TL5      -0.488100
      2 C1          -6.3770    40.5620    31.6890 c          1 TL5       0.636900
      3 C2          -6.5980    40.0150    30.3340 ce         1 TL5      -0.260400
      4 C9          -8.0240    39.9550    29.7930 c3         1 TL5      -0.013900
      5 S1          -4.6140    40.5780    32.0480 ss         1 TL5      -0.370600
      6 C4          -4.1760    39.8320    30.3930 c5         1 TL5       0.140400
      7 C3          -5.5070    39.6520    29.6340 c2         1 TL5       0.132900
      8 O2          -5.5570    39.1670    28.3780 oh         1 TL5      -0.514100
      9 C10         -3.5180    38.4400    30.5930 c3         1 TL5      -0.073100
     10 C5          -3.3160    40.8730    29.6450 c2         1 TL5      -0.241200
     11 C6          -2.0400    41.2010    30.0010 ce         1 TL5      -0.020200
     12 C11         -1.2660    40.6790    31.2140 c3         1 TL5      -0.064900
     13 C7          -1.3450    42.2150    29.1780 ce         1 TL5      -0.206000
     14 C8          -0.0210    42.4960    29.1930 c2         1 TL5      -0.185200
     15 C12          0.6480    43.5390    28.3250 c3         1 TL5      -0.063900
     16 H91         -8.6550    40.7500    30.2100 hc         1 TL5       0.050033
     17 H92         -8.0530    40.0690    28.7020 hc         1 TL5       0.050033
     18 H93         -8.4960    38.9960    30.0370 hc         1 TL5       0.050033
     19 HO2         -4.6370    38.9960    28.0860 ho         1 TL5       0.478000
     20 H101        -4.2550    37.7150    30.9590 hc         1 TL5       0.052700
     21 H102        -3.1140    38.0520    29.6500 hc         1 TL5       0.052700
     22 H103        -2.7060    38.4470    31.3240 hc         1 TL5       0.052700
     23 H5          -3.7510    41.3590    28.7710 ha         1 TL5       0.179000
     24 H111        -0.6540    39.8090    30.9470 hc         1 TL5       0.050367
     25 H112        -0.5960    41.4410    31.6260 hc         1 TL5       0.050367
     26 H113        -1.9070    40.3940    32.0510 hc         1 TL5       0.050367
     27 H7          -1.9780    42.7700    28.4830 ha         1 TL5       0.171000
     28 H8           0.6720    41.9600    29.8420 ha         1 TL5       0.171000
     29 H121         0.5190    43.3080    27.2600 hc         1 TL5       0.044700
     30 H122         0.2240    44.5340    28.5060 hc         1 TL5       0.044700
     31 H123         1.7240    43.5930    28.5270 hc         1 TL5       0.044700
@<TRIPOS>BOND
     1     1     2 2   
     2     2     3 1   
     3     2     5 1   
     4     3     4 1   
     5     3     7 2   
     6     4    16 1   
     7     4    17 1   
     8     4    18 1   
     9     5     6 1   
    10     6     7 1   
    11     6     9 1   
    12     6    10 1   
    13     7     8 1   
    14     8    19 1   
    15     9    20 1   
    16     9    21 1   
    17     9    22 1   
    18    10    11 2   
    19    10    23 1   
    20    11    12 1   
    21    11    13 1   
    22    12    24 1   
    23    12    25 1   
    24    12    26 1   
    25    13    14 2   
    26    13    27 1   
    27    14    15 1   
    28    14    28 1   
    29    15    29 1   
    30    15    30 1   
    31    15    31 1   
@<TRIPOS>SUBSTRUCTURE
     1 TL5         1 TEMP              0 ****  ****    0 ROOT
