@<TRIPOS>MOLECULE
TL7
  144   152     1     0     0
SMALL
No Charge or Current Charge


@<TRIPOS>ATOM
      1 C35         -0.1260    40.5060   -59.4890 ca         1 TL7      -0.118000
      2 C33          0.7600    42.3030   -58.1170 ca         1 TL7      -0.116000
      3 C37          2.9090    42.3540   -67.6230 c3         1 TL7       0.114300
      4 C34         -0.2800    41.4160   -58.4320 ca         1 TL7      -0.105000
      5 C32          1.9490    42.2860   -58.8650 ca         1 TL7      -0.095000
      6 C7           8.7540    44.4830   -63.5150 c3         1 TL7       0.051700
      7 C9           7.7250    44.7830   -62.3710 c          1 TL7       0.598100
      8 C13          4.3260    44.6510   -64.2370 ca         1 TL7      -0.060300
      9 C20          5.3100    44.7250   -61.5550 c6         1 TL7       0.033700
     10 C18          3.4170    44.9100   -63.2030 ca         1 TL7      -0.102300
     11 C16          1.6120    43.9830   -64.5400 ca         1 TL7      -0.131000
     12 C19          3.9800    45.4610   -61.9050 c6         1 TL7      -0.032100
     13 C1          11.1730    48.1880   -61.4470 c3         1 TL7      -0.094100
     14 C12          5.8010    45.0280   -64.0480 c6         1 TL7       0.155300
     15 C14          3.8780    44.0510   -65.4270 ca         1 TL7      -0.168000
     16 C15          2.5200    43.6910   -65.5710 ca         1 TL7       0.132100
     17 C17          2.0560    44.5920   -63.3530 ca         1 TL7      -0.059000
     18 C2          11.3430    47.2610   -62.6700 c3         1 TL7       0.100500
     19 C22          5.1120    43.2430   -61.0880 c          1 TL7       0.603100
     20 C25          3.4280    41.3850   -60.7390 c6         1 TL7       0.156000
     21 C27          3.3480    40.5750   -62.0560 c6         1 TL7      -0.087400
     22 C28          2.6460    39.2240   -61.8300 c6         1 TL7      -0.070400
     23 C29          1.1880    39.4570   -61.3810 c6         1 TL7      -0.033100
     24 C30          1.0630    40.4760   -60.2420 ca         1 TL7      -0.065300
     25 C31          2.1090    41.3870   -59.9430 ca         1 TL7      -0.101300
     26 C38          3.6810    41.2440   -66.9090 ca         1 TL7       0.253300
     27 C39          2.9990    40.2740   -66.1260 ca         1 TL7       0.321900
     28 C41          5.0160    39.3240   -65.5230 ca         1 TL7       0.270300
     29 C42          5.6970    40.2930   -66.3170 ca         1 TL7       0.305900
     30 C44          5.7570    38.2760   -64.6830 c3         1 TL7       0.131300
     31 C46          7.6670    37.7480   -66.0820 c          1 TL7       0.638100
     32 C49          9.8820    38.4450   -65.0660 c6         1 TL7       0.114000
     33 C50         11.3970    38.5150   -65.3730 c6         1 TL7      -0.093400
     34 C51         11.6260    39.1120   -66.7790 c6         1 TL7      -0.070400
     35 C52         10.9200    38.2760   -67.8900 c6         1 TL7       0.087300
     36 C54          9.8210    37.3190   -67.3350 c6         1 TL7       0.090000
     37 C56         12.0820    37.6200   -70.0910 cc         1 TL7       0.311000
     38 C57         13.0450    36.7150   -70.4010 cd         1 TL7      -0.357600
     39 C58         13.4250    36.1140   -69.1760 cd         1 TL7       0.371500
     40 C60         14.4540    35.0890   -68.9570 ca         1 TL7      -0.163500
     41 C61         15.8090    35.3710   -69.2270 ca         1 TL7      -0.055500
     42 C62         16.7940    34.3940   -68.9970 ca         1 TL7      -0.164500
     43 C63         16.4340    33.1350   -68.4920 ca         1 TL7       0.139100
     44 C64         15.0870    32.8600   -68.1900 ca         1 TL7      -0.164500
     45 C65         14.1010    33.8350   -68.4190 ca         1 TL7      -0.055500
     46 C67         17.2390    30.8510   -68.4840 ca         1 TL7       0.037100
     47 C68         16.5210    30.3950   -69.6100 ca         1 TL7      -0.070000
     48 C69         16.3590    29.0130   -69.8240 ca         1 TL7      -0.163000
     49 C70         16.9170    28.0920   -68.9230 ca         1 TL7       0.202000
     50 C71         17.6430    28.5380   -67.8090 ca         1 TL7      -0.195000
     51 C72         17.8060    29.9160   -67.5930 ca         1 TL7       0.200000
     52 C75         13.5220    36.4580   -71.7720 c          1 TL7       0.666700
     53 C79          9.0590    42.9530   -63.7460 c3         1 TL7      -0.044000
     54 C80          7.7790    42.1750   -64.1590 c3         1 TL7      -0.090100
     55 C81         10.0960    42.7960   -64.8950 c3         1 TL7      -0.090100
     56 C82          9.6360    42.2920   -62.4630 c3         1 TL7      -0.090100
     57 F73         18.5080    30.3380   -66.5170 f          1 TL7      -0.153000
     58 F74         16.7590    26.7680   -69.1330 f          1 TL7      -0.167000
     59 N11          6.3340    44.8210   -62.6620 n          1 TL7      -0.385800
     60 N24          3.8210    42.7600   -61.0510 ns         1 TL7      -0.500900
     61 N40          3.6560    39.3070   -65.4300 nb         1 TL7      -0.614000
     62 N43          5.0400    41.2560   -67.0190 nb         1 TL7      -0.645000
     63 N48          9.0630    37.8800   -66.1790 n          1 TL7      -0.407800
     64 N55         11.9010    37.5080   -68.7050 na         1 TL7       0.078800
     65 N59         12.7360    36.5600   -68.1430 nc         1 TL7      -0.526800
     66 N6           9.9720    45.2490   -63.2160 ns         1 TL7      -0.504900
     67 N77         14.3940    35.4480   -71.9220 nt         1 TL7      -0.599000
     68 N83         12.0380    48.0140   -63.7600 n7         1 TL7      -0.842400
     69 O10          8.1010    44.9370   -61.2100 o          1 TL7      -0.626100
     70 O23          6.0540    42.5290   -60.7720 o          1 TL7      -0.589100
     71 O36          2.0400    43.0370   -66.6900 os         1 TL7      -0.339100
     72 O45          7.1850    38.2840   -64.9170 os         1 TL7      -0.453100
     73 O47          6.9710    37.2330   -66.9430 o          1 TL7      -0.525000
     74 O66         17.4200    32.2020   -68.2640 os         1 TL7      -0.237200
     75 O76         13.1640    37.0860   -72.7540 o          1 TL7      -0.659100
     76 H1          -0.9350    39.8160   -59.7220 ha         1 TL7       0.108000
     77 H2           0.6470    43.0040   -57.2920 ha         1 TL7       0.113000
     78 H3           2.3140    41.9030   -68.4270 h1         1 TL7       0.078700
     79 H4           3.6070    43.0580   -68.0940 h1         1 TL7       0.078700
     80 H5          -1.2010    41.4300   -57.8530 ha         1 TL7       0.111000
     81 H6           2.7490    42.9750   -58.6020 ha         1 TL7       0.135000
     82 H7           8.3600    44.8980   -64.4490 h1         1 TL7       0.088700
     83 H8           5.7080    45.2340   -60.6660 h1         1 TL7       0.069700
     84 H9           0.5650    43.7140   -64.6510 ha         1 TL7       0.130000
     85 H10          4.1810    46.5340   -62.0280 hc         1 TL7       0.060200
     86 H11          3.2570    45.3840   -61.0810 hc         1 TL7       0.060200
     87 H12         12.1440    48.5580   -61.0990 hc         1 TL7       0.048367
     88 H13         10.5410    49.0500   -61.6940 hc         1 TL7       0.048367
     89 H14         10.7010    47.6440   -60.6200 hc         1 TL7       0.048367
     90 H15          6.3810    44.4480   -64.7740 h1         1 TL7       0.061700
     91 H16          5.9270    46.0870   -64.3150 h1         1 TL7       0.061700
     92 H17          4.5930    43.8640   -66.2210 ha         1 TL7       0.125000
     93 H18          1.3490    44.7900   -62.5500 ha         1 TL7       0.117000
     94 H19         11.9920    46.4340   -62.3500 h1         1 TL7       0.022700
     95 H20          4.1960    40.9290   -60.0960 h1         1 TL7       0.091700
     96 H21          4.3590    40.4150   -62.4540 hc         1 TL7       0.046200
     97 H22          2.8000    41.1470   -62.8180 hc         1 TL7       0.046200
     98 H23          2.6620    38.6260   -62.7510 hc         1 TL7       0.047200
     99 H24          3.1860    38.6450   -61.0680 hc         1 TL7       0.047200
    100 H25          0.5970    39.8090   -62.2380 hc         1 TL7       0.048700
    101 H26          0.7460    38.4980   -61.0780 hc         1 TL7       0.048700
    102 H27          1.9120    40.2830   -66.0440 h4         1 TL7       0.049100
    103 H28          6.7830    40.3150   -66.3850 h4         1 TL7       0.035100
    104 H29          5.5580    38.4990   -63.6270 h1         1 TL7       0.084200
    105 H30          5.3320    37.2840   -64.8840 h1         1 TL7       0.084200
    106 H31          9.7230    37.8480   -64.1560 h1         1 TL7       0.050700
    107 H32          9.5220    39.4610   -64.8550 h1         1 TL7       0.050700
    108 H33         11.8390    37.5100   -65.3160 hc         1 TL7       0.060700
    109 H34         11.9030    39.1230   -64.6120 hc         1 TL7       0.060700
    110 H35         12.7020    39.2100   -66.9810 hc         1 TL7       0.063700
    111 H36         11.2270    40.1360   -66.7980 hc         1 TL7       0.063700
    112 H37         10.4150    38.9950   -68.5470 h1         1 TL7       0.060700
    113 H38          9.1400    37.0530   -68.1560 h1         1 TL7       0.077700
    114 H39         10.2880    36.3820   -67.0010 h1         1 TL7       0.077700
    115 H40         16.0990    36.3480   -69.6110 ha         1 TL7       0.127000
    116 H41         17.8370    34.6130   -69.2090 ha         1 TL7       0.130000
    117 H42         14.8030    31.8980   -67.7710 ha         1 TL7       0.130000
    118 H43         13.0610    33.6170   -68.1810 ha         1 TL7       0.127000
    119 H44         16.0950    31.1040   -70.3160 ha         1 TL7       0.136000
    120 H45         15.8040    28.6550   -70.6880 ha         1 TL7       0.142000
    121 H46         18.0760    27.8220   -67.1180 ha         1 TL7       0.154000
    122 H47          6.9900    42.2610   -63.4040 hc         1 TL7       0.040367
    123 H48          7.3870    42.5380   -65.1160 hc         1 TL7       0.040367
    124 H49          7.9950    41.1070   -64.2790 hc         1 TL7       0.040367
    125 H50         11.0610    43.2480   -64.6340 hc         1 TL7       0.040367
    126 H51         10.2800    41.7380   -65.1150 hc         1 TL7       0.040367
    127 H52          9.7370    43.2730   -65.8150 hc         1 TL7       0.040367
    128 H53         10.5520    42.7930   -62.1270 hc         1 TL7       0.040367
    129 H54          8.9120    42.3210   -61.6400 hc         1 TL7       0.040367
    130 H55          9.8840    41.2390   -62.6450 hc         1 TL7       0.040367
    131 H56         12.8960    47.8540   -65.7010 h1         1 TL7       0.032700
    132 H57         13.0550    46.3930   -64.7020 h1         1 TL7       0.032700
    133 H58         11.4870    46.8070   -65.4340 h1         1 TL7       0.032700
    134 H59          3.0940    43.3940   -61.3560 hn         1 TL7       0.311500
    135 H60         10.8020    44.7510   -62.9360 hn         1 TL7       0.328500
    136 H61         14.7400    35.2320   -72.8430 hn         1 TL7       0.315000
    137 H62         14.6820    34.9100   -71.1200 hn         1 TL7       0.315000
    138 H65         12.9080    48.4070   -63.3770 hn         1 TL7       0.415000
    139 N78         11.3740    38.4550   -70.9070 nv         1 TL7      -1.065000
    140 C4           9.9730    46.6190   -63.0940 c          1 TL7       0.600100
    141 C84         12.3860    47.2240   -64.9600 c3         1 TL7       0.143100
    142 O5           8.9430    47.2560   -63.2860 o          1 TL7      -0.583100
    143 H63         10.9080    39.2740   -70.5240 hn         1 TL7       0.487500
    144 H64         11.6670    38.5070   -71.8840 hn         1 TL7       0.487500
@<TRIPOS>BOND
     1     1     4 ar  
     2     1    24 ar  
     3     1    76 1   
     4     2     4 ar  
     5     2     5 ar  
     6     2    77 1   
     7     3    26 1   
     8     3    71 1   
     9     3    78 1   
    10     3    79 1   
    11     4    80 1   
    12     5    25 ar  
    13     5    81 1   
    14     6     7 1   
    15     6    53 1   
    16     6    66 1   
    17     6    82 1   
    18     7    59 1   
    19     7    69 2   
    20     8    10 ar  
    21     8    14 1   
    22     8    15 ar  
    23     9    12 1   
    24     9    19 1   
    25     9    59 1   
    26     9    83 1   
    27    10    12 1   
    28    10    17 ar  
    29    11    16 ar  
    30    11    17 ar  
    31    11    84 1   
    32    12    85 1   
    33    12    86 1   
    34    13    18 1   
    35    13    87 1   
    36    13    88 1   
    37    13    89 1   
    38    14    59 1   
    39    14    90 1   
    40    14    91 1   
    41    15    16 ar  
    42    15    92 1   
    43    16    71 1   
    44    17    93 1   
    45    18    68 1   
    46    18    94 1   
    47    18   140 1   
    48    19    60 1   
    49    19    70 2   
    50    20    21 1   
    51    20    25 1   
    52    20    60 1   
    53    20    95 1   
    54    21    22 1   
    55    21    96 1   
    56    21    97 1   
    57    22    23 1   
    58    22    98 1   
    59    22    99 1   
    60    23    24 1   
    61    23   100 1   
    62    23   101 1   
    63    24    25 ar  
    64    26    27 ar  
    65    26    62 ar  
    66    27    61 ar  
    67    27   102 1   
    68    28    29 ar  
    69    28    30 1   
    70    28    61 ar  
    71    29    62 ar  
    72    29   103 1   
    73    30    72 1   
    74    30   104 1   
    75    30   105 1   
    76    31    63 1   
    77    31    72 1   
    78    31    73 2   
    79    32    33 1   
    80    32    63 1   
    81    32   106 1   
    82    32   107 1   
    83    33    34 1   
    84    33   108 1   
    85    33   109 1   
    86    34    35 1   
    87    34   110 1   
    88    34   111 1   
    89    35    36 1   
    90    35    64 1   
    91    35   112 1   
    92    36    63 1   
    93    36   113 1   
    94    36   114 1   
    95    37    38 2   
    96    37    64 1   
    97    37   139 1   
    98    38    39 1   
    99    38    52 1   
   100    39    40 1   
   101    39    65 2   
   102    40    41 ar  
   103    40    45 ar  
   104    41    42 ar  
   105    41   115 1   
   106    42    43 ar  
   107    42   116 1   
   108    43    44 ar  
   109    43    74 1   
   110    44    45 ar  
   111    44   117 1   
   112    45   118 1   
   113    46    47 ar  
   114    46    51 ar  
   115    46    74 1   
   116    47    48 ar  
   117    47   119 1   
   118    48    49 ar  
   119    48   120 1   
   120    49    50 ar  
   121    49    58 1   
   122    50    51 ar  
   123    50   121 1   
   124    51    57 1   
   125    52    67 1   
   126    52    75 2   
   127    53    54 1   
   128    53    55 1   
   129    53    56 1   
   130    54   122 1   
   131    54   123 1   
   132    54   124 1   
   133    55   125 1   
   134    55   126 1   
   135    55   127 1   
   136    56   128 1   
   137    56   129 1   
   138    56   130 1   
   139    60   134 1   
   140    64    65 1   
   141    66   135 1   
   142    66   140 1   
   143    67   136 1   
   144    67   137 1   
   145    68   138 1   
   146    68   141 1   
   147   131   141 1   
   148   132   141 1   
   149   133   141 1   
   150   139   143 1   
   151   139   144 1   
   152   140   142 2   
@<TRIPOS>SUBSTRUCTURE
     1 TL7         1 TEMP              0 ****  ****    0 ROOT
