@<TRIPOS>MOLECULE
TL7
  144   152     1     0     0
SMALL
bcc


@<TRIPOS>ATOM
      1 C35          0.3320    42.6400   -56.9280 ca         1 TL7      -0.136000
      2 C33          2.5500    43.5360   -57.0460 ca         1 TL7      -0.134000
      3 C37          5.8410    42.7300   -68.5640 c3         1 TL7       0.091100
      4 C34          1.4640    43.1140   -56.2890 ca         1 TL7      -0.123000
      5 C32          2.4830    43.4810   -58.4280 ca         1 TL7      -0.113000
      6 C7           7.2100    44.9610   -62.0330 c3         1 TL7       0.051700
      7 C9           5.6960    45.0780   -61.8360 c          1 TL7       0.665100
      8 C13          4.4330    44.8920   -65.2220 ca         1 TL7      -0.060300
      9 C20          3.4580    45.3860   -62.5690 c6         1 TL7       0.033700
     10 C18          3.0660    44.9550   -64.9950 ca         1 TL7      -0.102300
     11 C16          2.7110    43.5600   -66.9230 ca         1 TL7      -0.149000
     12 C19          2.6390    45.7640   -63.8120 c6         1 TL7      -0.032100
     13 C1           8.0220    48.5410   -59.5010 c3         1 TL7      -0.094100
     14 C12          5.2980    45.6310   -64.2460 c6         1 TL7       0.155300
     15 C14          4.9550    44.1780   -66.2930 ca         1 TL7      -0.186000
     16 C15          4.0850    43.5100   -67.1510 ca         1 TL7       0.132100
     17 C17          2.2090    44.2760   -65.8490 ca         1 TL7      -0.077000
     18 C2           8.9770    47.3660   -59.7000 c3         1 TL7       0.100500
     19 C22          2.9890    44.0200   -62.0640 c          1 TL7       0.670100
     20 C25          1.3250    42.9380   -60.5960 c6         1 TL7       0.156000
     21 C27         -0.0820    42.7680   -61.1600 c6         1 TL7      -0.087400
     22 C28         -0.8110    41.6620   -60.4160 c6         1 TL7      -0.070400
     23 C29         -1.0100    42.0580   -58.9620 c6         1 TL7      -0.033100
     24 C30          0.2520    42.5770   -58.3200 ca         1 TL7      -0.065300
     25 C31          1.3420    43.0110   -59.0790 ca         1 TL7      -0.101300
     26 C38          6.6670    41.8580   -67.6540 ca         1 TL7       0.253300
     27 C39          6.1220    40.9230   -66.7820 ca         1 TL7       0.321900
     28 C41          8.2000    40.3160   -66.0980 ca         1 TL7       0.270300
     29 C42          8.7450    41.2470   -66.9790 ca         1 TL7       0.305900
     30 C44          9.0590    39.5050   -65.1710 c3         1 TL7       0.108100
     31 C46         10.0090    37.9420   -66.6480 c          1 TL7       0.754100
     32 C49         12.4740    38.0700   -66.8350 c6         1 TL7       0.114000
     33 C50         13.5080    37.6210   -67.8650 c6         1 TL7      -0.093400
     34 C51         12.9100    37.6710   -69.2630 c6         1 TL7      -0.070400
     35 C52         11.7260    36.6990   -69.3950 c6         1 TL7       0.058000
     36 C54         11.1800    36.3200   -68.0110 c6         1 TL7       0.090000
     37 C56         11.2330    34.7110   -70.8320 cc         1 TL7       0.223300
     38 C57         11.9740    33.5970   -71.2410 cd         1 TL7      -0.422900
     39 C58         13.2690    33.8330   -70.7050 cd         1 TL7       0.436800
     40 C60         14.4950    33.0390   -70.8830 ca         1 TL7      -0.163500
     41 C61         14.8850    32.6230   -72.1580 ca         1 TL7      -0.073500
     42 C62         16.0320    31.8780   -72.3470 ca         1 TL7      -0.182500
     43 C63         16.8210    31.5370   -71.2540 ca         1 TL7       0.139100
     44 C64         16.4700    31.9600   -69.9790 ca         1 TL7      -0.182500
     45 C65         15.3100    32.7070   -69.8060 ca         1 TL7      -0.073500
     46 C67         18.7420    30.3540   -70.5370 ca         1 TL7       0.037100
     47 C68         18.4620    29.2150   -69.7990 ca         1 TL7      -0.088000
     48 C69         19.3600    28.7530   -68.8470 ca         1 TL7      -0.181000
     49 C70         20.5360    29.4510   -68.6540 ca         1 TL7       0.166900
     50 C71         20.8450    30.5940   -69.3680 ca         1 TL7      -0.213000
     51 C72         19.9300    31.0320   -70.3040 ca         1 TL7       0.164900
     52 C75         11.3860    32.4860   -71.9880 c          1 TL7       0.733700
     53 C79          7.6950    43.4850   -62.1740 c3         1 TL7      -0.044000
     54 C80          7.0990    42.8580   -63.4350 c3         1 TL7      -0.090100
     55 C81          9.2190    43.5000   -62.3140 c3         1 TL7      -0.090100
     56 C82          7.3160    42.6280   -60.9650 c3         1 TL7      -0.090100
     57 F73         20.1940    32.1280   -71.0160 f          1 TL7      -0.117900
     58 F74         21.4160    29.0060   -67.7490 f          1 TL7      -0.131900
     59 N11          4.8800    45.3410   -62.8770 n          1 TL7      -0.452800
     60 N24          1.9880    44.0870   -61.1720 ns         1 TL7      -0.567900
     61 N40          6.8880    40.1650   -66.0100 nb         1 TL7      -0.614000
     62 N43          7.9820    42.0090   -67.7440 nb         1 TL7      -0.645000
     63 N48         11.1720    37.4800   -67.1480 n          1 TL7      -0.474800
     64 N55         12.0680    35.4870   -70.1200 na         1 TL7       0.057400
     65 N59         13.3070    34.9570   -70.0290 nc         1 TL7      -0.526800
     66 N6           7.8260    45.6340   -60.9160 ns         1 TL7      -0.571900
     67 N77         12.0500    31.3160   -72.0010 nt         1 TL7      -0.666000
     68 N83         10.3440    47.8280   -59.7070 n7         1 TL7      -0.787200
     69 O10          5.2360    44.9360   -60.7090 o          1 TL7      -0.626100
     70 O23          3.4540    42.9770   -62.4920 o          1 TL7      -0.589100
     71 O36          4.4780    42.7760   -68.2220 os         1 TL7      -0.315900
     72 O45         10.2100    38.9710   -65.8080 os         1 TL7      -0.429900
     73 O47          8.9050    37.5020   -66.8980 o          1 TL7      -0.574000
     74 O66         17.9190    30.7800   -71.5380 os         1 TL7      -0.237200
     75 O76         10.3090    32.6170   -72.5720 o          1 TL7      -0.659100
     76 H1          -0.5150    42.3050   -56.3390 ha         1 TL7       0.126000
     77 H2           3.4450    43.9060   -56.5620 ha         1 TL7       0.131000
     78 H3           5.8750    42.3180   -69.5750 h1         1 TL7       0.078700
     79 H4           6.2880    43.7280   -68.6130 h1         1 TL7       0.078700
     80 H5           1.5020    43.1520   -55.2080 ha         1 TL7       0.129000
     81 H6           3.3310    43.8160   -59.0130 ha         1 TL7       0.153000
     82 H7           7.5400    45.4940   -62.9230 h1         1 TL7       0.088700
     83 H8           3.2760    46.1410   -61.7980 h1         1 TL7       0.069700
     84 H9           2.0410    43.0320   -67.5900 ha         1 TL7       0.148000
     85 H10          2.7890    46.8300   -64.0110 hc         1 TL7       0.060200
     86 H11          1.5770    45.6400   -63.5950 hc         1 TL7       0.060200
     87 H12          8.2060    49.0180   -58.5380 hc         1 TL7       0.048367
     88 H13          8.1600    49.2870   -60.2850 hc         1 TL7       0.048367
     89 H14          6.9840    48.2090   -59.5150 hc         1 TL7       0.048367
     90 H15          6.3390    45.3660   -64.3910 h1         1 TL7       0.061700
     91 H16          5.2200    46.7100   -64.4250 h1         1 TL7       0.061700
     92 H17          6.0290    44.1530   -66.4280 ha         1 TL7       0.143000
     93 H18          1.1390    44.3050   -65.6800 ha         1 TL7       0.135000
     94 H19          8.7950    46.6370   -58.8920 h1         1 TL7       0.022700
     95 H20          1.9110    42.0640   -60.8950 h1         1 TL7       0.091700
     96 H21         -0.0090    42.5480   -62.2270 hc         1 TL7       0.046200
     97 H22         -0.6370    43.7080   -61.0630 hc         1 TL7       0.046200
     98 H23         -1.7750    41.4560   -60.8830 hc         1 TL7       0.047200
     99 H24         -0.2300    40.7360   -60.4740 hc         1 TL7       0.047200
    100 H25         -1.7810    42.8350   -58.9020 hc         1 TL7       0.048700
    101 H26         -1.3910    41.2150   -58.3810 hc         1 TL7       0.048700
    102 H27          5.0510    40.7770   -66.7000 h4         1 TL7       0.049100
    103 H28          9.8170    41.3840   -67.0600 h4         1 TL7       0.035100
    104 H29          9.4520    40.1450   -64.3790 h1         1 TL7       0.084200
    105 H30          8.4550    38.7260   -64.7050 h1         1 TL7       0.084200
    106 H31         12.7930    37.7980   -65.8250 h1         1 TL7       0.050700
    107 H32         12.3940    39.1560   -66.8760 h1         1 TL7       0.050700
    108 H33         13.8770    36.6170   -67.6450 hc         1 TL7       0.060700
    109 H34         14.3680    38.2870   -67.7960 hc         1 TL7       0.060700
    110 H35         13.6620    37.4600   -70.0220 hc         1 TL7       0.063700
    111 H36         12.5470    38.6830   -69.4570 hc         1 TL7       0.063700
    112 H37         10.9380    37.1980   -69.9600 h1         1 TL7       0.060700
    113 H38         10.1760    35.9120   -68.0940 h1         1 TL7       0.077700
    114 H39         11.8100    35.5400   -67.5750 h1         1 TL7       0.077700
    115 H40         14.2850    32.8890   -73.0190 ha         1 TL7       0.145000
    116 H41         16.3210    31.5600   -73.3410 ha         1 TL7       0.148000
    117 H42         17.0740    31.7120   -69.1160 ha         1 TL7       0.148000
    118 H43         15.0340    33.0200   -68.8070 ha         1 TL7       0.145000
    119 H44         17.5400    28.6770   -69.9780 ha         1 TL7       0.154000
    120 H45         19.1460    27.8610   -68.2740 ha         1 TL7       0.160000
    121 H46         21.7720    31.1280   -69.2060 ha         1 TL7       0.172000
    122 H47          6.0090    42.8440   -63.4210 hc         1 TL7       0.040367
    123 H48          7.4240    43.3790   -64.3390 hc         1 TL7       0.040367
    124 H49          7.4350    41.8230   -63.5250 hc         1 TL7       0.040367
    125 H50          9.7090    43.8670   -61.4110 hc         1 TL7       0.040367
    126 H51          9.5820    42.4870   -62.4960 hc         1 TL7       0.040367
    127 H52          9.5400    44.1220   -63.1520 hc         1 TL7       0.040367
    128 H53          7.6830    43.0500   -60.0280 hc         1 TL7       0.040367
    129 H54          6.2400    42.4850   -60.8760 hc         1 TL7       0.040367
    130 H55          7.7690    41.6400   -61.0700 hc         1 TL7       0.040367
    131 H56         12.3150    47.1770   -59.5330 h1         1 TL7       0.032700
    132 H57         11.1540    46.0600   -58.8010 h1         1 TL7       0.032700
    133 H58         11.3070    46.1700   -60.5570 h1         1 TL7       0.032700
    134 H59          1.6730    44.9970   -60.8700 hn         1 TL7       0.311500
    135 H60          7.5120    45.3770   -59.9940 hn         1 TL7       0.328500
    136 H61         11.6420    30.5240   -72.4680 hn         1 TL7       0.315000
    137 H62         12.8560    31.1450   -71.4250 hn         1 TL7       0.315000
    138 H65         10.4780    48.4510   -58.9220 hn         1 TL7       0.359800
    139 N78          9.9110    34.9730   -70.9930 nv         1 TL7      -0.816200
    140 C4           8.6390    46.7010   -61.0340 c          1 TL7       0.667100
    141 C84         11.3160    46.7560   -59.6360 c3         1 TL7       0.143100
    142 O5           9.0390    47.1360   -62.1020 o          1 TL7      -0.583100
    143 H63          9.6090    35.9340   -70.9530 hn         1 TL7       0.432300
    144 H64          9.4870    34.4460   -71.7410 hn         1 TL7       0.432300
@<TRIPOS>BOND
     1     1     4 ar  
     2     1    24 ar  
     3     1    76 1   
     4     2     4 ar  
     5     2     5 ar  
     6     2    77 1   
     7     3    26 1   
     8     3    71 1   
     9     3    78 1   
    10     3    79 1   
    11     4    80 1   
    12     5    25 ar  
    13     5    81 1   
    14     6     7 1   
    15     6    53 1   
    16     6    66 1   
    17     6    82 1   
    18     7    59 1   
    19     7    69 2   
    20     8    10 ar  
    21     8    14 1   
    22     8    15 ar  
    23     9    12 1   
    24     9    19 1   
    25     9    59 1   
    26     9    83 1   
    27    10    12 1   
    28    10    17 ar  
    29    11    16 ar  
    30    11    17 ar  
    31    11    84 1   
    32    12    85 1   
    33    12    86 1   
    34    13    18 1   
    35    13    87 1   
    36    13    88 1   
    37    13    89 1   
    38    14    59 1   
    39    14    90 1   
    40    14    91 1   
    41    15    16 ar  
    42    15    92 1   
    43    16    71 1   
    44    17    93 1   
    45    18    68 1   
    46    18    94 1   
    47    18   140 1   
    48    19    60 1   
    49    19    70 2   
    50    20    21 1   
    51    20    25 1   
    52    20    60 1   
    53    20    95 1   
    54    21    22 1   
    55    21    96 1   
    56    21    97 1   
    57    22    23 1   
    58    22    98 1   
    59    22    99 1   
    60    23    24 1   
    61    23   100 1   
    62    23   101 1   
    63    24    25 ar  
    64    26    27 ar  
    65    26    62 ar  
    66    27    61 ar  
    67    27   102 1   
    68    28    29 ar  
    69    28    30 1   
    70    28    61 ar  
    71    29    62 ar  
    72    29   103 1   
    73    30    72 1   
    74    30   104 1   
    75    30   105 1   
    76    31    63 1   
    77    31    72 1   
    78    31    73 2   
    79    32    33 1   
    80    32    63 1   
    81    32   106 1   
    82    32   107 1   
    83    33    34 1   
    84    33   108 1   
    85    33   109 1   
    86    34    35 1   
    87    34   110 1   
    88    34   111 1   
    89    35    36 1   
    90    35    64 1   
    91    35   112 1   
    92    36    63 1   
    93    36   113 1   
    94    36   114 1   
    95    37    38 2   
    96    37    64 1   
    97    37   139 1   
    98    38    39 1   
    99    38    52 1   
   100    39    40 1   
   101    39    65 2   
   102    40    41 ar  
   103    40    45 ar  
   104    41    42 ar  
   105    41   115 1   
   106    42    43 ar  
   107    42   116 1   
   108    43    44 ar  
   109    43    74 1   
   110    44    45 ar  
   111    44   117 1   
   112    45   118 1   
   113    46    47 ar  
   114    46    51 ar  
   115    46    74 1   
   116    47    48 ar  
   117    47   119 1   
   118    48    49 ar  
   119    48   120 1   
   120    49    50 ar  
   121    49    58 1   
   122    50    51 ar  
   123    50   121 1   
   124    51    57 1   
   125    52    67 1   
   126    52    75 2   
   127    53    54 1   
   128    53    55 1   
   129    53    56 1   
   130    54   122 1   
   131    54   123 1   
   132    54   124 1   
   133    55   125 1   
   134    55   126 1   
   135    55   127 1   
   136    56   128 1   
   137    56   129 1   
   138    56   130 1   
   139    60   134 1   
   140    64    65 1   
   141    66   135 1   
   142    66   140 1   
   143    67   136 1   
   144    67   137 1   
   145    68   138 1   
   146    68   141 1   
   147   131   141 1   
   148   132   141 1   
   149   133   141 1   
   150   139   143 1   
   151   139   144 1   
   152   140   142 2   
@<TRIPOS>SUBSTRUCTURE
     1 TL7         1 TEMP              0 ****  ****    0 ROOT
