@<TRIPOS>MOLECULE
TL8
   35    37     1     0     0
SMALL
No Charge or Current Charge


@<TRIPOS>ATOM
      1 C10        -21.0290   -24.8580     1.4800 ca         1 TL8      -0.118000
      2 C13        -22.1200   -22.9980     3.2750 ca         1 TL8      -0.083000
      3 C15        -25.8420   -21.3610     1.9680 cc         1 TL8       0.236900
      4 C17        -22.9100   -21.0390    -0.5320 ca         1 TL8      -0.221000
      5 C20        -20.9720   -18.8850    -0.4340 c3         1 TL8       0.145900
      6 C02        -22.1650   -21.5250    -2.8020 ca         1 TL8      -0.241600
      7 C03        -23.0960   -22.5830    -2.8680 ca         1 TL8      -0.009000
      8 C04        -23.9230   -22.8650    -1.7700 ca         1 TL8      -0.173000
      9 C05        -23.8300   -22.1030    -0.5950 ca         1 TL8       0.069800
     10 C07        -24.0450   -22.5370     1.7230 cd         1 TL8       0.469000
     11 C08        -22.7730   -23.2310     2.0420 ca         1 TL8      -0.129500
     12 C09        -22.2210   -24.1860     1.1580 ca         1 TL8      -0.083000
     13 C11        -20.3790   -24.5980     2.6960 ca         1 TL8      -0.101000
     14 C12        -20.9280   -23.6700     3.5950 ca         1 TL8      -0.118000
     15 C16        -25.7460   -21.5630     0.6170 cd         1 TL8      -0.214000
     16 C18        -22.0720   -20.7500    -1.6300 ca         1 TL8       0.203100
     17 N06        -24.6630   -22.4070     0.4840 na         1 TL8      -0.080300
     18 N14        -24.8040   -21.9490     2.6450 nc         1 TL8      -0.660000
     19 O19        -21.1540   -19.7190    -1.5930 os         1 TL8      -0.339100
     20 H1         -20.6130   -25.5870     0.7870 ha         1 TL8       0.116500
     21 H2         -22.5300   -22.2840     3.9870 ha         1 TL8       0.125000
     22 H3         -26.5810   -20.7790     2.5050 h4         1 TL8       0.042100
     23 H4         -22.8580   -20.4470     0.3770 ha         1 TL8       0.141000
     24 H5         -20.1900   -18.1390    -0.6220 h1         1 TL8       0.050367
     25 H6         -21.8980   -18.3500    -0.1880 h1         1 TL8       0.050367
     26 H7         -20.6670   -19.4830     0.4340 h1         1 TL8       0.050367
     27 H8         -20.5630   -20.3820    -3.8730 h4         1 TL8       0.009200
     28 H11        -23.1830   -23.1890    -3.7680 ha         1 TL8       0.142000
     29 H12        -24.6380   -23.6830    -1.8320 ha         1 TL8       0.135000
     30 H13        -22.7150   -24.4230     0.2190 ha         1 TL8       0.125000
     31 H14        -19.4570   -25.1200     2.9450 ha         1 TL8       0.114000
     32 H15        -20.4320   -23.4730     4.5430 ha         1 TL8       0.116500
     33 H16        -26.3360   -21.1850    -0.2090 h4         1 TL8       0.163000
     34 O1         -21.3190   -21.8710    -5.0250 o          1 TL8      -0.528100
     35 C01        -21.2780   -21.2270    -3.9800 c          1 TL8       0.593500
@<TRIPOS>BOND
     1     1    12 ar  
     2     1    13 ar  
     3     1    20 1   
     4     2    11 ar  
     5     2    14 ar  
     6     2    21 1   
     7     3    15 2   
     8     3    18 1   
     9     3    22 1   
    10     4     9 ar  
    11     4    16 ar  
    12     4    23 1   
    13     5    19 1   
    14     5    24 1   
    15     5    25 1   
    16     5    26 1   
    17     6     7 ar  
    18     6    16 ar  
    19     6    35 1   
    20     7     8 ar  
    21     7    28 1   
    22     8     9 ar  
    23     8    29 1   
    24     9    17 1   
    25    10    11 1   
    26    10    17 1   
    27    10    18 2   
    28    11    12 ar  
    29    12    30 1   
    30    13    14 ar  
    31    13    31 1   
    32    14    32 1   
    33    15    17 1   
    34    15    33 1   
    35    16    19 1   
    36    27    35 1   
    37    34    35 2   
@<TRIPOS>SUBSTRUCTURE
     1 TL8         1 TEMP              0 ****  ****    0 ROOT
