@<TRIPOS>MOLECULE
TL8
   35    37     1     0     0
SMALL
bcc


@<TRIPOS>ATOM
      1 C10        -20.8000   -24.2140     1.6100 ca         1 TL8      -0.136000
      2 C13        -22.3110   -22.6400     3.3220 ca         1 TL8      -0.101000
      3 C15        -26.2970   -22.1900     1.8890 cc         1 TL8       0.302200
      4 C17        -22.6640   -21.1920    -0.5170 ca         1 TL8      -0.239000
      5 C20        -20.2360   -19.8160    -0.3640 c3         1 TL8       0.122700
      6 C02        -22.3080   -21.4240    -2.9020 ca         1 TL8      -0.241600
      7 C03        -23.5000   -22.1410    -2.9880 ca         1 TL8      -0.027000
      8 C04        -24.2620   -22.4110    -1.8700 ca         1 TL8      -0.191000
      9 C05        -23.8310   -21.9310    -0.6390 ca         1 TL8       0.069800
     10 C07        -24.2010   -22.5960     1.7470 cd         1 TL8       0.469000
     11 C08        -22.8390   -23.0180     2.0880 ca         1 TL8      -0.129500
     12 C09        -22.0750   -23.8170     1.2380 ca         1 TL8      -0.101000
     13 C11        -20.2750   -23.8240     2.8360 ca         1 TL8      -0.119000
     14 C12        -21.0360   -23.0400     3.6920 ca         1 TL8      -0.136000
     15 C16        -25.9600   -21.9290     0.5970 cd         1 TL8      -0.246600
     16 C18        -21.8830   -20.9520    -1.6450 ca         1 TL8       0.203100
     17 N06        -24.6120   -22.1820     0.5090 na         1 TL8      -0.131000
     18 N14        -25.2030   -22.6050     2.5890 nc         1 TL8      -0.660000
     19 O19        -20.7350   -20.2740    -1.6100 os         1 TL8      -0.315900
     20 H1         -20.2180   -24.8370     0.9440 ha         1 TL8       0.134500
     21 H2         -22.8980   -22.0220     3.9890 ha         1 TL8       0.143000
     22 H3         -27.2700   -22.1020     2.3480 h4         1 TL8       0.042100
     23 H4         -22.3790   -20.8080     0.4520 ha         1 TL8       0.159000
     24 H5         -19.2870   -19.3320    -0.5780 h1         1 TL8       0.050367
     25 H6         -20.9080   -19.0900     0.0980 h1         1 TL8       0.050367
     26 H7         -20.0650   -20.6420     0.3300 h1         1 TL8       0.050367
     27 H8         -20.5790   -20.6240    -3.9860 h4         1 TL8       0.009200
     28 H11        -23.8230   -22.5060    -3.9540 ha         1 TL8       0.160000
     29 H12        -25.1700   -22.9950    -1.9460 ha         1 TL8       0.153000
     30 H13        -22.4770   -24.1480     0.2890 ha         1 TL8       0.143000
     31 H14        -19.2790   -24.1350     3.1230 ha         1 TL8       0.132000
     32 H15        -20.6350   -22.7350     4.6500 ha         1 TL8       0.134500
     33 H16        -26.5270   -21.5620    -0.2410 h4         1 TL8       0.181000
     34 O1         -21.8650   -21.5410    -5.2210 o          1 TL8      -0.528100
     35 C01        -21.5220   -21.1740    -4.1190 c          1 TL8       0.593500
@<TRIPOS>BOND
     1     1    12 ar  
     2     1    13 ar  
     3     1    20 1   
     4     2    11 ar  
     5     2    14 ar  
     6     2    21 1   
     7     3    15 2   
     8     3    18 1   
     9     3    22 1   
    10     4     9 ar  
    11     4    16 ar  
    12     4    23 1   
    13     5    19 1   
    14     5    24 1   
    15     5    25 1   
    16     5    26 1   
    17     6     7 ar  
    18     6    16 ar  
    19     6    35 1   
    20     7     8 ar  
    21     7    28 1   
    22     8     9 ar  
    23     8    29 1   
    24     9    17 1   
    25    10    11 1   
    26    10    17 1   
    27    10    18 2   
    28    11    12 ar  
    29    12    30 1   
    30    13    14 ar  
    31    13    31 1   
    32    14    32 1   
    33    15    17 1   
    34    15    33 1   
    35    16    19 1   
    36    27    35 1   
    37    34    35 2   
@<TRIPOS>SUBSTRUCTURE
     1 TL8         1 TEMP              0 ****  ****    0 ROOT
