@<TRIPOS>MOLECULE
TLA
   14    13     1     0     0
SMALL
bcc


@<TRIPOS>ATOM
      1 O1           0.8610     0.5320    -2.6070 o          1 TLA      -0.864050
      2 O11         -1.0470    -0.6030    -2.3490 o          1 TLA      -0.864050
      3 C1          -0.1240     0.1240    -1.9490 c          1 TLA       0.909600
      4 C2          -0.1710     0.6020    -0.4830 c3         1 TLA       0.012100
      5 O2           0.9220     1.4480    -0.2290 oh         1 TLA      -0.636800
      6 C3          -0.1810    -0.5890     0.4710 c3         1 TLA       0.012100
      7 O3           0.9030    -1.4480     0.2220 oh         1 TLA      -0.636800
      8 C4          -0.1350    -0.1140     1.9380 c          1 TLA       0.909600
      9 O4           0.8360    -0.5410     2.6030 o          1 TLA      -0.864050
     10 O41         -1.0480     0.6290     2.3330 o          1 TLA      -0.864050
     11 H2          -1.1150     1.1470    -0.3370 h1         1 TLA       0.031700
     12 HA           1.4070     1.4150    -1.0740 ho         1 TLA       0.411000
     13 H3          -1.1300    -1.1220     0.3190 h1         1 TLA       0.031700
     14 HB           1.3820    -1.4250     1.0710 ho         1 TLA       0.411000
@<TRIPOS>BOND
     1     1     3 1   
     2     2     3 1   
     3     3     4 1   
     4     4     5 1   
     5     4     6 1   
     6     4    11 1   
     7     5    12 1   
     8     6     7 1   
     9     6     8 1   
    10     6    13 1   
    11     7    14 1   
    12     8     9 1   
    13     8    10 1   
@<TRIPOS>SUBSTRUCTURE
     1 TLA         1 TEMP              0 ****  ****    0 ROOT
