@<TRIPOS>MOLECULE
TLA
   14    13     1     0     0
SMALL
No Charge or Current Charge


@<TRIPOS>ATOM
      1 O1           0.6730     0.2770    -2.7540 o          1 TLA      -0.758750
      2 O11         -1.3960    -0.1680    -2.3630 o          1 TLA      -0.758750
      3 C1          -0.2760     0.1540    -1.9870 c          1 TLA       0.699000
      4 C2          -0.0830     0.6130    -0.4940 c3         1 TLA       0.035300
      5 O2           1.1150     1.4210    -0.3100 oh         1 TLA      -0.699000
      6 C3          -0.0940    -0.6030     0.4820 c3         1 TLA       0.035300
      7 O3           1.0960    -1.4250     0.3060 oh         1 TLA      -0.699000
      8 C4          -0.2880    -0.1410     1.9740 c          1 TLA       0.699000
      9 O4           0.6560    -0.2770     2.7460 o          1 TLA      -0.758750
     10 O41         -1.4050     0.1960     2.3450 o          1 TLA      -0.758750
     11 H2          -0.9630     1.2260    -0.2550 h1         1 TLA       0.031700
     12 HA           1.6620     1.2250    -1.1080 ho         1 TLA       0.450000
     13 H3          -0.9790    -1.2060     0.2380 h1         1 TLA       0.031700
     14 HB           1.6390    -1.2380     1.1090 ho         1 TLA       0.450000
@<TRIPOS>BOND
     1     1     3 1   
     2     2     3 1   
     3     3     4 1   
     4     4     5 1   
     5     4     6 1   
     6     4    11 1   
     7     5    12 1   
     8     6     7 1   
     9     6     8 1   
    10     6    13 1   
    11     7    14 1   
    12     8     9 1   
    13     8    10 1   
@<TRIPOS>SUBSTRUCTURE
     1 TLA         1 TEMP              0 ****  ****    0 ROOT
