@<TRIPOS>MOLECULE
TLD
   17    17     1     0     0
SMALL
No Charge or Current Charge


@<TRIPOS>ATOM
      1 C1           0.3940    -1.5190     0.4520 ca         1 TLD      -0.068000
      2 C2          -0.5480    -0.4830     0.3050 ca         1 TLD      -0.098000
      3 C3          -0.1000     0.8270     0.0280 ca         1 TLD      -0.070000
      4 C4           1.2790     1.0800    -0.0960 ca         1 TLD      -0.086000
      5 C5           2.2190     0.0450     0.0550 ca         1 TLD      -0.058300
      6 C6           1.7690    -1.2580     0.3280 ca         1 TLD      -0.109000
      7 C13          3.7060     0.3320    -0.0840 c3         1 TLD      -0.049800
      8 S15         -2.2920    -0.8460     0.4690 sh         1 TLD      -0.210800
      9 S17         -1.2560     2.1720    -0.1710 sh         1 TLD      -0.203800
     10 H1           0.0610    -2.5330     0.6640 ha         1 TLD       0.128000
     11 H4           1.6190     2.0910    -0.3110 ha         1 TLD       0.127000
     12 H6           2.4820    -2.0710     0.4430 ha         1 TLD       0.118000
     13 H131         4.3060    -0.3630     0.5160 hc         1 TLD       0.046700
     14 H132         4.0260     0.2340    -1.1280 hc         1 TLD       0.046700
     15 H133         3.9510     1.3480     0.2480 hc         1 TLD       0.046700
     16 HS15        -2.1430    -2.1310     0.8700 hs         1 TLD       0.217800
     17 HS17        -2.3660     1.4210     0.0280 hs         1 TLD       0.223800
@<TRIPOS>BOND
     1     1     2 ar  
     2     1     6 ar  
     3     1    10 1   
     4     2     3 ar  
     5     2     8 1   
     6     3     4 ar  
     7     3     9 1   
     8     4     5 ar  
     9     4    11 1   
    10     5     6 ar  
    11     5     7 1   
    12     6    12 1   
    13     7    13 1   
    14     7    14 1   
    15     7    15 1   
    16     8    16 1   
    17     9    17 1   
@<TRIPOS>SUBSTRUCTURE
     1 TLD         1 TEMP              0 ****  ****    0 ROOT
