@<TRIPOS>MOLECULE
TLD
   17    17     1     0     0
SMALL
bcc


@<TRIPOS>ATOM
      1 C1           0.5180    -1.7000     0.1120 ca         1 TLD      -0.086000
      2 C2          -0.4800    -0.7400     0.2610 ca         1 TLD       0.028900
      3 C3          -0.1190     0.6120     0.2630 ca         1 TLD       0.056900
      4 C4           1.2270     0.9620     0.1650 ca         1 TLD      -0.104000
      5 C5           2.2250     0.0050     0.0350 ca         1 TLD      -0.058300
      6 C6           1.8480    -1.3360    -0.0030 ca         1 TLD      -0.127000
      7 C13          3.6680     0.4030    -0.0710 c3         1 TLD      -0.049800
      8 S15         -2.1580    -1.2940     0.3430 sh         1 TLD      -0.337700
      9 S17         -1.2770     1.9280     0.4730 sh         1 TLD      -0.330700
     10 H1           0.2480    -2.7480     0.1050 ha         1 TLD       0.146000
     11 H4           1.4970     2.0120     0.1690 ha         1 TLD       0.145000
     12 H6           2.6010    -2.1070    -0.1100 ha         1 TLD       0.136000
     13 H131         4.2520    -0.0170     0.7490 hc         1 TLD       0.046700
     14 H132         4.1100     0.0390    -1.0000 hc         1 TLD       0.046700
     15 H133         3.7870     1.4850    -0.0460 hc         1 TLD       0.046700
     16 HS15        -2.5470    -0.5490     1.3870 hs         1 TLD       0.217800
     17 HS17        -2.2930     1.3900    -0.2160 hs         1 TLD       0.223800
@<TRIPOS>BOND
     1     1     2 ar  
     2     1     6 ar  
     3     1    10 1   
     4     2     3 ar  
     5     2     8 1   
     6     3     4 ar  
     7     3     9 1   
     8     4     5 ar  
     9     4    11 1   
    10     5     6 ar  
    11     5     7 1   
    12     6    12 1   
    13     7    13 1   
    14     7    14 1   
    15     7    15 1   
    16     8    16 1   
    17     9    17 1   
@<TRIPOS>SUBSTRUCTURE
     1 TLD         1 TEMP              0 ****  ****    0 ROOT
