@<TRIPOS>MOLECULE
TLF
   29    30     1     0     0
SMALL
abcg2


@<TRIPOS>ATOM
      1 C4           1.8140    -0.6030     2.4840 ca         1 TLF      -0.083000
      2 C5           0.6610    -0.4120     1.7430 ca         1 TLF      -0.183000
      3 C6           0.7230    -0.2810     0.3530 ca         1 TLF       0.359000
      4 C8          -1.7080    -0.3670    -0.1720 ca         1 TLF       0.336000
      5 C9          -2.0700    -1.4210     0.6810 ca         1 TLF      -0.209000
      6 C10         -3.3980    -1.7390     0.8940 ca         1 TLF      -0.096000
      7 C11         -4.4070    -1.0250     0.2600 ca         1 TLF      -0.187000
      8 C12         -4.0540    -0.0030    -0.6050 ca         1 TLF      -0.053000
      9 C13         -2.7280     0.3460    -0.8480 ca         1 TLF      -0.202600
     10 C14         -2.4430     1.4560    -1.8480 c          1 TLF       0.721600
     11 O16         -3.4140     2.0750    -2.3080 o          1 TLF      -0.711000
     12 O15         -1.2390     1.6680    -2.1550 o          1 TLF      -0.711000
     13 N7          -0.3940    -0.0480    -0.4280 nu         1 TLF      -1.007000
     14 C1           1.9740    -0.3290    -0.3030 ca         1 TLF      -0.122300
     15 C17          2.0340    -0.1910    -1.7950 c3         1 TLF      -0.044800
     16 C2           3.1060    -0.4940     0.4890 ca         1 TLF       0.155000
     17 CL           4.6840    -0.5240    -0.2480 cl         1 TLF      -0.249000
     18 C3           3.0530    -0.6440     1.8670 ca         1 TLF      -0.174000
     19 H1           1.7480    -0.7000     3.5600 ha         1 TLF       0.099000
     20 H2          -0.2880    -0.3370     2.2540 ha         1 TLF       0.125000
     21 H3          -1.3050    -2.0150     1.1620 ha         1 TLF       0.099000
     22 H4          -3.6420    -2.5620     1.5540 ha         1 TLF       0.082000
     23 H5          -5.4470    -1.2710     0.4270 ha         1 TLF       0.090000
     24 H6          -4.8280     0.5520    -1.1190 ha         1 TLF       0.127000
     25 H8          -0.3380     0.6400    -1.1950 hn         1 TLF       0.574000
     26 H9           1.9650     0.8560    -2.1020 hc         1 TLF       0.050033
     27 H10          2.9570    -0.5880    -2.2080 hc         1 TLF       0.050033
     28 H11          1.2020    -0.7170    -2.2630 hc         1 TLF       0.050033
     29 H12          3.9570    -0.7810     2.4430 ha         1 TLF       0.111000
@<TRIPOS>BOND
     1     1     2 ar  
     2     1    18 ar  
     3     1    19 1   
     4     2     3 ar  
     5     2    20 1   
     6     3    13 1   
     7     3    14 ar  
     8     4     5 ar  
     9     4     9 ar  
    10     4    13 1   
    11     5     6 ar  
    12     5    21 1   
    13     6     7 ar  
    14     6    22 1   
    15     7     8 ar  
    16     7    23 1   
    17     8     9 ar  
    18     8    24 1   
    19     9    10 1   
    20    10    11 1   
    21    10    12 1   
    22    13    25 1   
    23    14    15 1   
    24    14    16 ar  
    25    15    26 1   
    26    15    27 1   
    27    15    28 1   
    28    16    17 1   
    29    16    18 ar  
    30    18    29 1   
@<TRIPOS>SUBSTRUCTURE
     1 TLF         1 TEMP              0 ****  ****    0 ROOT
