@<TRIPOS>MOLECULE
TLF
   29    30     1     0     0
SMALL
No Charge or Current Charge


@<TRIPOS>ATOM
      1 C4           1.8720    -0.5590     2.5240 ca         1 TLF      -0.083000
      2 C5           0.6980    -0.3890     1.7770 ca         1 TLF      -0.183000
      3 C6           0.7440    -0.2730     0.3750 ca         1 TLF       0.359000
      4 C8          -1.7790    -0.3850    -0.1560 ca         1 TLF       0.336000
      5 C9          -2.1440    -1.4460     0.6960 ca         1 TLF      -0.209000
      6 C10         -3.4920    -1.7830     0.8850 ca         1 TLF      -0.096000
      7 C11         -4.4870    -1.0650     0.2110 ca         1 TLF      -0.187000
      8 C12         -4.1350    -0.0200    -0.6590 ca         1 TLF      -0.053000
      9 C13         -2.7780     0.3260    -0.8610 ca         1 TLF      -0.202600
     10 C14         -2.4380     1.4480    -1.8160 c          1 TLF       0.721600
     11 O16         -3.2680     2.3300    -1.9850 o          1 TLF      -0.711000
     12 O15         -1.3640     1.4230    -2.4050 o          1 TLF      -0.711000
     13 N7          -0.4380    -0.0670    -0.3400 nu         1 TLF      -1.007000
     14 C1           1.9940    -0.3000    -0.2950 ca         1 TLF      -0.122300
     15 C17          2.0930    -0.1560    -1.8210 c3         1 TLF      -0.044800
     16 C2           3.1720    -0.4610     0.4730 ca         1 TLF       0.155000
     17 Cl           4.7670    -0.4820    -0.2840 cl         1 TLF      -0.249000
     18 C3           3.1080    -0.5950     1.8680 ca         1 TLF      -0.174000
     19 H1           1.8240    -0.6480     3.6080 ha         1 TLF       0.099000
     20 H2          -0.2520    -0.3250     2.2990 ha         1 TLF       0.125000
     21 H3          -1.3820    -2.0280     1.2040 ha         1 TLF       0.099000
     22 H4          -3.7620    -2.6030     1.5470 ha         1 TLF       0.082000
     23 H5          -5.5340    -1.3230     0.3540 ha         1 TLF       0.090000
     24 H6          -4.9230     0.5160    -1.1850 ha         1 TLF       0.127000
     25 H8          -0.3170     0.4820    -1.2040 hn         1 TLF       0.574000
     26 H9           2.3980     0.8610    -2.0970 hc         1 TLF       0.050033
     27 H10          2.8280    -0.8500    -2.2430 hc         1 TLF       0.050033
     28 H11          1.1510    -0.3700    -2.3370 hc         1 TLF       0.050033
     29 H12          4.0220    -0.7180     2.4430 ha         1 TLF       0.111000
@<TRIPOS>BOND
     1     1     2 ar  
     2     1    18 ar  
     3     1    19 1   
     4     2     3 ar  
     5     2    20 1   
     6     3    13 1   
     7     3    14 ar  
     8     4     5 ar  
     9     4     9 ar  
    10     4    13 1   
    11     5     6 ar  
    12     5    21 1   
    13     6     7 ar  
    14     6    22 1   
    15     7     8 ar  
    16     7    23 1   
    17     8     9 ar  
    18     8    24 1   
    19     9    10 1   
    20    10    11 1   
    21    10    12 1   
    22    13    25 1   
    23    14    15 1   
    24    14    16 ar  
    25    15    26 1   
    26    15    27 1   
    27    15    28 1   
    28    16    17 1   
    29    16    18 ar  
    30    18    29 1   
@<TRIPOS>SUBSTRUCTURE
     1 TLF         1 TEMP              0 ****  ****    0 ROOT
