@<TRIPOS>MOLECULE
TLH
   30    30     1     0     0
SMALL
No Charge or Current Charge


@<TRIPOS>ATOM
      1 F2          -3.3230    -1.7360     0.4750 f          1 TLH      -0.093667
      2 C10         -3.4340    -0.4270     0.1440 c3         1 TLH       0.241000
      3 F           -4.4590    -0.3370    -0.7390 f          1 TLH      -0.093667
      4 F1          -3.8110     0.2530     1.2520 f          1 TLH      -0.093667
      5 C9          -2.1110     0.1410    -0.4600 c          1 TLH       0.564300
      6 O1          -2.1330     0.8920    -1.4320 o          1 TLH      -0.541100
      7 C8          -0.7770    -0.3570     0.0070 ce         1 TLH      -0.495400
      8 C7          -0.5460    -0.8120     1.3920 c          1 TLH       0.652900
      9 O           -1.3300    -0.6990     2.3170 o          1 TLH      -0.466100
     10 S            1.1790    -1.2960     1.6060 ss         1 TLH      -0.324600
     11 C11          0.2640    -0.4840    -0.8380 c2         1 TLH       0.286900
     12 O2           0.2290    -0.1330    -2.1310 oh         1 TLH      -0.473100
     13 C5           1.5000    -1.1490    -0.2140 c5         1 TLH       0.147400
     14 C6           1.6390    -2.5910    -0.7560 c3         1 TLH      -0.077100
     15 C4           2.8330    -0.3930    -0.3810 c2         1 TLH      -0.224200
     16 C2           2.9480     0.9540    -0.1920 ce         1 TLH      -0.023200
     17 C3           1.8370     1.8950     0.2800 c3         1 TLH      -0.067900
     18 C1           4.2800     1.5620    -0.3990 ce         1 TLH      -0.197000
     19 C            4.5530     2.8840    -0.5110 c2         1 TLH      -0.286000
     20 H2          -0.6270     0.3450    -2.2410 ho         1 TLH       0.535000
     21 H61C         0.7190    -3.1660    -0.5980 hc         1 TLH       0.059700
     22 H62C         1.8490    -2.5890    -1.8320 hc         1 TLH       0.059700
     23 H63C         2.4560    -3.1270    -0.2580 hc         1 TLH       0.059700
     24 H4           3.7120    -0.9560    -0.6960 ha         1 TLH       0.189000
     25 H31C         2.2320     2.7410     0.8540 hc         1 TLH       0.050367
     26 H32C         1.2770     2.3040    -0.5690 hc         1 TLH       0.050367
     27 H33C         1.1250     1.4150     0.9530 hc         1 TLH       0.050367
     28 H1           5.1120     0.8580    -0.4840 ha         1 TLH       0.174000
     29 HC1          5.5730     3.2360    -0.6710 ha         1 TLH       0.167500
     30 HC2          3.7860     3.6580    -0.4680 ha         1 TLH       0.167500
@<TRIPOS>BOND
     1     1     2 1   
     2     2     3 1   
     3     2     4 1   
     4     2     5 1   
     5     5     6 2   
     6     5     7 1   
     7     7     8 1   
     8     7    11 2   
     9     8     9 2   
    10     8    10 1   
    11    10    13 1   
    12    11    12 1   
    13    11    13 1   
    14    12    20 1   
    15    13    14 1   
    16    13    15 1   
    17    14    21 1   
    18    14    22 1   
    19    14    23 1   
    20    15    16 2   
    21    15    24 1   
    22    16    17 1   
    23    16    18 1   
    24    17    25 1   
    25    17    26 1   
    26    17    27 1   
    27    18    19 2   
    28    18    28 1   
    29    19    29 1   
    30    19    30 1   
@<TRIPOS>SUBSTRUCTURE
     1 TLH         1 TEMP              0 ****  ****    0 ROOT
