@<TRIPOS>MOLECULE
TLH
   30    30     1     0     0
SMALL
abcg2


@<TRIPOS>ATOM
      1 F2          -3.7050    -1.3030     0.7120 f          1 TLH      -0.093667
      2 C10         -3.3960    -0.1100     0.2130 c3         1 TLH       0.241000
      3 F           -4.4020     0.2820    -0.5570 f          1 TLH      -0.093667
      4 F1          -3.2790     0.7650     1.2090 f          1 TLH      -0.093667
      5 C9          -2.0980    -0.1770    -0.6100 c          1 TLH       0.564300
      6 O1          -2.1700     0.1420    -1.7850 o          1 TLH      -0.541100
      7 C8          -0.8550    -0.5950    -0.0110 ce         1 TLH      -0.495400
      8 C7          -0.6020    -0.9670     1.3780 c          1 TLH       0.652900
      9 O           -1.3820    -1.0190     2.2930 o          1 TLH      -0.466100
     10 S            1.1250    -1.3320     1.6030 ss         1 TLH      -0.324600
     11 C11          0.2740    -0.6450    -0.7990 c2         1 TLH       0.286900
     12 O2           0.3430    -0.3330    -2.0480 oh         1 TLH      -0.473100
     13 C5           1.5370    -1.1720    -0.1770 c5         1 TLH       0.147400
     14 C6           1.7860    -2.5740    -0.7570 c3         1 TLH      -0.077100
     15 C4           2.7440    -0.3010    -0.4070 c2         1 TLH      -0.224200
     16 C2           2.8730     1.0170    -0.2020 ce         1 TLH      -0.023200
     17 C3           1.8030     1.9160     0.3320 c3         1 TLH      -0.067900
     18 C1           4.1650     1.6250    -0.5290 ce         1 TLH      -0.197000
     19 C            4.4620     2.9190    -0.4070 c2         1 TLH      -0.286000
     20 H2          -0.5580    -0.0600    -2.3570 ho         1 TLH       0.535000
     21 H61C         0.9190    -3.2190    -0.6270 hc         1 TLH       0.059700
     22 H62C         2.0210    -2.5060    -1.8190 hc         1 TLH       0.059700
     23 H63C         2.6350    -3.0300    -0.2500 hc         1 TLH       0.059700
     24 H4           3.6050    -0.8390    -0.7890 ha         1 TLH       0.189000
     25 H31C         2.1500     2.4290     1.2300 hc         1 TLH       0.050367
     26 H32C         1.5490     2.6870    -0.3980 hc         1 TLH       0.050367
     27 H33C         0.8870     1.3960     0.5960 hc         1 TLH       0.050367
     28 H1           4.9250     0.9480    -0.9060 ha         1 TLH       0.174000
     29 HC1          5.4430     3.2880    -0.6760 ha         1 TLH       0.167500
     30 HC2          3.7540     3.6530    -0.0450 ha         1 TLH       0.167500
@<TRIPOS>BOND
     1     1     2 1   
     2     2     3 1   
     3     2     4 1   
     4     2     5 1   
     5     5     6 2   
     6     5     7 1   
     7     7     8 1   
     8     7    11 2   
     9     8     9 2   
    10     8    10 1   
    11    10    13 1   
    12    11    12 1   
    13    11    13 1   
    14    12    20 1   
    15    13    14 1   
    16    13    15 1   
    17    14    21 1   
    18    14    22 1   
    19    14    23 1   
    20    15    16 2   
    21    15    24 1   
    22    16    17 1   
    23    16    18 1   
    24    17    25 1   
    25    17    26 1   
    26    17    27 1   
    27    18    19 2   
    28    18    28 1   
    29    19    29 1   
    30    19    30 1   
@<TRIPOS>SUBSTRUCTURE
     1 TLH         1 TEMP              0 ****  ****    0 ROOT
