@<TRIPOS>MOLECULE
TLI
   50    56     1     0     0
SMALL
No Charge or Current Charge


@<TRIPOS>ATOM
      1 C01         29.1850   -35.5950   -65.4990 c3         1 TLI      -0.084600
      2 C02         30.4270   -36.5170   -65.4810 c3         1 TLI      -0.034700
      3 C03         31.0480   -36.6590   -66.8910 c3         1 TLI      -0.084600
      4 C04         31.4690   -36.1360   -64.4090 cx         1 TLI       0.131000
      5 C05         31.0970   -36.2880   -62.8830 cx         1 TLI       0.106300
      6 C07         32.7210   -36.2780   -62.5910 cx         1 TLI       0.103300
      7 C08         32.8660   -34.8380   -61.8100 cx         1 TLI       0.135000
      8 C10         33.6380   -34.9340   -60.4440 c6         1 TLI      -0.011000
      9 C11         33.1970   -36.0550   -59.4330 c6         1 TLI      -0.076400
     10 C12         34.1130   -36.0930   -58.1640 c6         1 TLI      -0.011200
     11 C13         35.5800   -35.7710   -58.5010 ce         1 TLI      -0.196400
     12 C14         36.0060   -35.3700   -59.6970 c2         1 TLI      -0.107400
     13 C15         35.1190   -35.2510   -60.9180 c6         1 TLI      -0.007500
     14 C16         35.5850   -34.2610   -62.0370 c6         1 TLI      -0.061400
     15 C17         34.4510   -33.9820   -63.0810 cx         1 TLI       0.118300
     16 C18         33.2210   -34.8800   -63.3960 cx         1 TLI       0.088000
     17 C19         32.3530   -34.8990   -64.6750 c6         1 TLI       0.215300
     18 C22         37.5120   -35.1850   -59.6060 c5         1 TLI       0.179800
     19 C24         36.6900   -35.8590   -57.5400 c          1 TLI       0.652300
     20 C26         33.4490   -33.5250   -59.7200 c3         1 TLI      -0.088100
     21 O06         31.9650   -37.2480   -63.6390 op         1 TLI      -0.448000
     22 O09         31.6160   -35.4080   -62.1030 op         1 TLI      -0.401000
     23 O20         31.6100   -33.6720   -64.7250 oh         1 TLI      -0.696000
     24 O21         33.1360   -33.5640   -62.7010 op         1 TLI      -0.448000
     25 O23         37.8330   -35.5020   -58.2120 os         1 TLI      -0.426100
     26 O25         36.6310   -36.1850   -56.3640 o          1 TLI      -0.479000
     27 H012        28.7610   -35.4900   -64.4930 hc         1 TLI       0.041200
     28 H013        29.4310   -34.5960   -65.8770 hc         1 TLI       0.041200
     29 H011        28.4070   -36.0140   -66.1490 hc         1 TLI       0.041200
     30 H021        30.0520   -37.5140   -65.2160 hc         1 TLI       0.053700
     31 H033        31.9070   -37.3400   -66.8680 hc         1 TLI       0.041200
     32 H031        30.3130   -37.0660   -67.5950 hc         1 TLI       0.041200
     33 H032        31.3840   -35.6890   -67.2760 hc         1 TLI       0.041200
     34 H051        30.2930   -36.9210   -62.4570 h1         1 TLI       0.105700
     35 H071        33.1040   -37.0840   -61.9470 h1         1 TLI       0.102700
     36 H111        32.1490   -35.9140   -59.1370 hc         1 TLI       0.053700
     37 H112        33.2470   -37.0460   -59.8970 hc         1 TLI       0.053700
     38 H121        33.7480   -35.3700   -57.4220 hc         1 TLI       0.068700
     39 H122        34.0430   -37.0800   -57.6840 hc         1 TLI       0.068700
     40 H151        35.1330   -36.2500   -61.3750 hc         1 TLI       0.074700
     41 H161        36.4630   -34.6690   -62.5540 hc         1 TLI       0.063700
     42 H162        35.8950   -33.3050   -61.5960 hc         1 TLI       0.063700
     43 H171        34.8520   -33.4360   -63.9360 h1         1 TLI       0.094700
     44 H191        32.9820   -35.0490   -65.5650 h1         1 TLI       0.051700
     45 H222        38.0560   -35.8690   -60.2720 h1         1 TLI       0.078700
     46 H221        37.8200   -34.1540   -59.8270 h1         1 TLI       0.078700
     47 H263        34.0440   -33.4380   -58.8040 hc         1 TLI       0.050700
     48 H261        33.7510   -32.6890   -60.3610 hc         1 TLI       0.050700
     49 H262        32.3990   -33.3610   -59.4490 hc         1 TLI       0.050700
     50 H201        31.8640   -33.2540   -63.8620 ho         1 TLI       0.521000
@<TRIPOS>BOND
     1     1     2 1   
     2     1    27 1   
     3     1    28 1   
     4     1    29 1   
     5     2     3 1   
     6     2     4 1   
     7     2    30 1   
     8     3    31 1   
     9     3    32 1   
    10     3    33 1   
    11     4     5 1   
    12     4    17 1   
    13     4    21 1   
    14     5     6 1   
    15     5    21 1   
    16     5    34 1   
    17     6     7 1   
    18     6    22 1   
    19     6    35 1   
    20     7     8 1   
    21     7    16 1   
    22     7    22 1   
    23     8     9 1   
    24     8    13 1   
    25     8    20 1   
    26     9    10 1   
    27     9    36 1   
    28     9    37 1   
    29    10    11 1   
    30    10    38 1   
    31    10    39 1   
    32    11    12 2   
    33    11    19 1   
    34    12    13 1   
    35    12    18 1   
    36    13    14 1   
    37    13    40 1   
    38    14    15 1   
    39    14    41 1   
    40    14    42 1   
    41    15    16 1   
    42    15    24 1   
    43    15    43 1   
    44    16    17 1   
    45    16    24 1   
    46    17    23 1   
    47    17    44 1   
    48    18    25 1   
    49    18    45 1   
    50    18    46 1   
    51    19    25 1   
    52    19    26 2   
    53    20    47 1   
    54    20    48 1   
    55    20    49 1   
    56    23    50 1   
@<TRIPOS>SUBSTRUCTURE
     1 TLI         1 TEMP              0 ****  ****    0 ROOT
