@<TRIPOS>MOLECULE
TLI
   50    56     1     0     0
SMALL
abcg2


@<TRIPOS>ATOM
      1 C01         29.2670   -35.8930   -65.3880 c3         1 TLI      -0.084600
      2 C02         30.6830   -36.4590   -65.5320 c3         1 TLI      -0.034700
      3 C03         31.3280   -36.0470   -66.8560 c3         1 TLI      -0.084600
      4 C04         31.5690   -36.1390   -64.3350 cx         1 TLI       0.131000
      5 C05         31.3770   -36.8970   -63.1020 cx         1 TLI       0.106300
      6 C07         31.7540   -36.3300   -61.7800 cx         1 TLI       0.103300
      7 C08         32.6470   -35.1670   -61.6870 cx         1 TLI       0.135000
      8 C10         33.5860   -34.9850   -60.4830 c6         1 TLI      -0.011000
      9 C11         33.2240   -35.9370   -59.3190 c6         1 TLI      -0.076400
     10 C12         34.1440   -35.7640   -58.1030 c6         1 TLI      -0.011200
     11 C13         35.5590   -35.6840   -58.5590 ce         1 TLI      -0.196400
     12 C14         35.9420   -35.5080   -59.8290 c2         1 TLI      -0.107400
     13 C15         35.0060   -35.3760   -60.9840 c6         1 TLI      -0.007500
     14 C16         35.5380   -34.4690   -62.0990 c6         1 TLI      -0.061400
     15 C17         34.5210   -34.2620   -63.1940 cx         1 TLI       0.118300
     16 C18         33.0940   -34.5770   -63.0040 cx         1 TLI       0.088000
     17 C19         32.2230   -34.7770   -64.2440 c6         1 TLI       0.215300
     18 C22         37.4330   -35.4900   -59.8910 c5         1 TLI       0.179800
     19 C24         36.7560   -35.7860   -57.7220 c          1 TLI       0.652300
     20 C26         33.5060   -33.5350   -59.9720 c3         1 TLI      -0.088100
     21 O06         32.4890   -37.1980   -63.9800 op         1 TLI      -0.448000
     22 O09         31.2340   -35.0310   -61.4300 op         1 TLI      -0.401000
     23 O20         31.2030   -33.7830   -64.2930 oh         1 TLI      -0.696000
     24 O21         33.5630   -33.2100   -62.9780 op         1 TLI      -0.448000
     25 O23         37.8560   -35.6750   -58.5250 os         1 TLI      -0.426100
     26 O25         36.8620   -35.9440   -56.5260 o          1 TLI      -0.479000
     27 H012        28.8210   -36.1880   -64.4370 hc         1 TLI       0.041200
     28 H013        29.2690   -34.8050   -65.4410 hc         1 TLI       0.041200
     29 H011        28.6360   -36.2770   -66.1920 hc         1 TLI       0.041200
     30 H021        30.6040   -37.5500   -65.5220 hc         1 TLI       0.053700
     31 H033        32.3390   -36.4490   -66.9500 hc         1 TLI       0.041200
     32 H031        30.7350   -36.4250   -67.6910 hc         1 TLI       0.041200
     33 H032        31.3810   -34.9600   -66.9500 hc         1 TLI       0.041200
     34 H051        30.6120   -37.6660   -63.0890 h1         1 TLI       0.105700
     35 H071        31.7330   -37.0380   -60.9630 h1         1 TLI       0.102700
     36 H111        32.1860   -35.7790   -59.0220 hc         1 TLI       0.053700
     37 H112        33.3180   -36.9700   -59.6580 hc         1 TLI       0.053700
     38 H121        33.8870   -34.8700   -57.5280 hc         1 TLI       0.068700
     39 H122        34.0140   -36.6080   -57.4220 hc         1 TLI       0.068700
     40 H151        34.9120   -36.3790   -61.4220 hc         1 TLI       0.074700
     41 H161        36.4310   -34.9200   -62.5350 hc         1 TLI       0.063700
     42 H162        35.8340   -33.4950   -61.7050 hc         1 TLI       0.063700
     43 H171        34.9000   -34.2900   -64.2110 h1         1 TLI       0.094700
     44 H191        32.8800   -34.6620   -65.1120 h1         1 TLI       0.051700
     45 H222        37.8450   -36.3010   -60.4970 h1         1 TLI       0.078700
     46 H221        37.8360   -34.5420   -60.2520 h1         1 TLI       0.078700
     47 H263        34.2320   -33.3610   -59.1790 hc         1 TLI       0.050700
     48 H261        33.6860   -32.8130   -60.7600 hc         1 TLI       0.050700
     49 H262        32.5100   -33.3530   -59.5630 hc         1 TLI       0.050700
     50 H201        31.6490   -32.9280   -64.2240 ho         1 TLI       0.521000
@<TRIPOS>BOND
     1     1     2 1   
     2     1    27 1   
     3     1    28 1   
     4     1    29 1   
     5     2     3 1   
     6     2     4 1   
     7     2    30 1   
     8     3    31 1   
     9     3    32 1   
    10     3    33 1   
    11     4     5 1   
    12     4    17 1   
    13     4    21 1   
    14     5     6 1   
    15     5    21 1   
    16     5    34 1   
    17     6     7 1   
    18     6    22 1   
    19     6    35 1   
    20     7     8 1   
    21     7    16 1   
    22     7    22 1   
    23     8     9 1   
    24     8    13 1   
    25     8    20 1   
    26     9    10 1   
    27     9    36 1   
    28     9    37 1   
    29    10    11 1   
    30    10    38 1   
    31    10    39 1   
    32    11    12 2   
    33    11    19 1   
    34    12    13 1   
    35    12    18 1   
    36    13    14 1   
    37    13    40 1   
    38    14    15 1   
    39    14    41 1   
    40    14    42 1   
    41    15    16 1   
    42    15    24 1   
    43    15    43 1   
    44    16    17 1   
    45    16    24 1   
    46    17    23 1   
    47    17    44 1   
    48    18    25 1   
    49    18    45 1   
    50    18    46 1   
    51    19    25 1   
    52    19    26 2   
    53    20    47 1   
    54    20    48 1   
    55    20    49 1   
    56    23    50 1   
@<TRIPOS>SUBSTRUCTURE
     1 TLI         1 TEMP              0 ****  ****    0 ROOT
