@<TRIPOS>MOLECULE
TLK
   35    37     1     0     0
SMALL
No Charge or Current Charge


@<TRIPOS>ATOM
      1 C01        -21.4370   -21.2840    -4.5150 c          1 TLK       0.580500
      2 C02        -22.1240   -21.5090    -3.1900 ca         1 TLK      -0.154600
      3 C03        -23.2000   -22.4140    -3.0790 ca         1 TLK      -0.085000
      4 C04        -23.8310   -22.6170    -1.8420 ca         1 TLK      -0.085000
      5 C05        -23.3960   -21.9270    -0.6950 ca         1 TLK      -0.024200
      6 C07        -23.4320   -22.5380     1.7090 cc         1 TLK       0.481000
      7 C08        -22.0430   -23.0030     1.8890 ca         1 TLK      -0.115500
      8 C09        -21.3530   -23.7030     0.8700 ca         1 TLK      -0.084000
      9 C10        -20.0420   -24.1650     1.0790 ca         1 TLK      -0.118000
     10 C11        -19.4080   -23.9560     2.3130 ca         1 TLK      -0.104000
     11 C12        -20.0920   -23.2950     3.3440 ca         1 TLK      -0.118000
     12 C13        -21.4030   -22.8320     3.1380 ca         1 TLK      -0.084000
     13 C15        -25.5030   -22.0070     2.1040 cd         1 TLK       0.235900
     14 C16        -25.3470   -21.8230     0.7520 cc         1 TLK      -0.216000
     15 C17        -22.3270   -21.0050    -0.7950 ca         1 TLK       0.146100
     16 C19        -20.8010   -19.4300     0.3550 c3         1 TLK       0.145900
     17 C20        -21.6940   -20.8060    -2.0440 ca         1 TLK      -0.160000
     18 N06        -24.0400   -22.1680     0.5210 na         1 TLK      -0.068300
     19 N14        -24.3240   -22.4430     2.6910 nd         1 TLK      -0.667000
     20 O18        -21.9370   -20.3110     0.3370 os         1 TLK      -0.319100
     21 H1         -20.6000   -20.5510    -4.5100 h4         1 TLK      -0.007800
     22 H4         -23.5490   -22.9640    -3.9520 ha         1 TLK       0.142000
     23 H5         -24.6560   -23.3230    -1.7720 ha         1 TLK       0.136000
     24 H6         -21.8300   -23.9070    -0.0850 ha         1 TLK       0.123000
     25 H7         -19.5220   -24.6950     0.2840 ha         1 TLK       0.113500
     26 H8         -18.3940   -24.3170     2.4730 ha         1 TLK       0.112000
     27 H9         -19.6080   -23.1430     4.3070 ha         1 TLK       0.113500
     28 H10        -21.9180   -22.3240     3.9500 ha         1 TLK       0.123000
     29 H11        -26.3970   -21.8390     2.6920 h4         1 TLK       0.039100
     30 H12        -26.0290   -21.4720    -0.0110 h4         1 TLK       0.159000
     31 H13        -20.6620   -19.0120     1.3600 h1         1 TLK       0.046700
     32 H14        -19.8850   -19.9710     0.0830 h1         1 TLK       0.046700
     33 H15        -20.9410   -18.5960    -0.3430 h1         1 TLK       0.046700
     34 H16        -20.8700   -20.1040    -2.1430 ha         1 TLK       0.125000
     35 O1         -21.7590   -21.8580    -5.5510 o          1 TLK      -0.506100
@<TRIPOS>BOND
     1     1     2 1   
     2     1    21 1   
     3     1    35 2   
     4     2     3 ar  
     5     2    17 ar  
     6     3     4 ar  
     7     3    22 1   
     8     4     5 ar  
     9     4    23 1   
    10     5    15 ar  
    11     5    18 1   
    12     6     7 1   
    13     6    18 1   
    14     6    19 2   
    15     7     8 ar  
    16     7    12 ar  
    17     8     9 ar  
    18     8    24 1   
    19     9    10 ar  
    20     9    25 1   
    21    10    11 ar  
    22    10    26 1   
    23    11    12 ar  
    24    11    27 1   
    25    12    28 1   
    26    13    14 2   
    27    13    19 1   
    28    13    29 1   
    29    14    18 1   
    30    14    30 1   
    31    15    17 ar  
    32    15    20 1   
    33    16    20 1   
    34    16    31 1   
    35    16    32 1   
    36    16    33 1   
    37    17    34 1   
@<TRIPOS>SUBSTRUCTURE
     1 TLK         1 TEMP              0 ****  ****    0 ROOT
