@<TRIPOS>MOLECULE
TLK
   35    37     1     0     0
SMALL
abcg2


@<TRIPOS>ATOM
      1 C01        -21.3430   -21.2910    -4.3750 c          1 TLK       0.580500
      2 C02        -22.0600   -21.5230    -3.1080 ca         1 TLK      -0.154600
      3 C03        -23.1010   -22.4410    -3.0290 ca         1 TLK      -0.085000
      4 C04        -23.7330   -22.6360    -1.8150 ca         1 TLK      -0.085000
      5 C05        -23.3330   -21.9230    -0.6950 ca         1 TLK      -0.024200
      6 C07        -23.4430   -22.5630     1.7110 cc         1 TLK       0.481000
      7 C08        -22.0720   -23.0600     1.8470 ca         1 TLK      -0.115500
      8 C09        -21.4790   -23.8640     0.8740 ca         1 TLK      -0.084000
      9 C10        -20.1810   -24.3240     1.0410 ca         1 TLK      -0.118000
     10 C11        -19.4630   -23.9960     2.1830 ca         1 TLK      -0.104000
     11 C12        -20.0540   -23.2090     3.1640 ca         1 TLK      -0.118000
     12 C13        -21.3500   -22.7450     2.9990 ca         1 TLK      -0.084000
     13 C15        -25.4570   -21.9840     2.1400 cd         1 TLK       0.235900
     14 C16        -25.2820   -21.7490     0.8100 cc         1 TLK      -0.216000
     15 C17        -22.2990   -20.9800    -0.7690 ca         1 TLK       0.146100
     16 C19        -20.9570   -19.3750     0.3410 c3         1 TLK       0.145900
     17 C20        -21.6600   -20.7960    -1.9900 ca         1 TLK      -0.160000
     18 N06        -23.9890   -22.1250     0.5390 na         1 TLK      -0.068300
     19 N14        -24.3130   -22.4880     2.6860 nd         1 TLK      -0.667000
     20 O18        -22.0090   -20.3230     0.3560 os         1 TLK      -0.319100
     21 H1         -20.5460   -20.5280    -4.3200 h4         1 TLK      -0.007800
     22 H4         -23.4090   -23.0030    -3.9010 ha         1 TLK       0.142000
     23 H5         -24.5350   -23.3560    -1.7180 ha         1 TLK       0.136000
     24 H6         -22.0300   -24.1580    -0.0100 ha         1 TLK       0.123000
     25 H7         -19.7330   -24.9490     0.2790 ha         1 TLK       0.113500
     26 H8         -18.4500   -24.3550     2.3110 ha         1 TLK       0.112000
     27 H9         -19.5030   -22.9510     4.0590 ha         1 TLK       0.113500
     28 H10        -21.8050   -22.1250     3.7600 ha         1 TLK       0.123000
     29 H11        -26.3470   -21.8210     2.7280 h4         1 TLK       0.039100
     30 H12        -25.9290   -21.3490     0.0480 h4         1 TLK       0.159000
     31 H13        -20.8920   -18.9760     1.3500 h1         1 TLK       0.046700
     32 H14        -20.0020   -19.8370     0.0790 h1         1 TLK       0.046700
     33 H15        -21.1610   -18.5560    -0.3520 h1         1 TLK       0.046700
     34 H16        -20.8520   -20.0820    -2.0940 ha         1 TLK       0.125000
     35 O1         -21.5810   -21.8720    -5.4070 o          1 TLK      -0.506100
@<TRIPOS>BOND
     1     1     2 1   
     2     1    21 1   
     3     1    35 2   
     4     2     3 ar  
     5     2    17 ar  
     6     3     4 ar  
     7     3    22 1   
     8     4     5 ar  
     9     4    23 1   
    10     5    15 ar  
    11     5    18 1   
    12     6     7 1   
    13     6    18 1   
    14     6    19 2   
    15     7     8 ar  
    16     7    12 ar  
    17     8     9 ar  
    18     8    24 1   
    19     9    10 ar  
    20     9    25 1   
    21    10    11 ar  
    22    10    26 1   
    23    11    12 ar  
    24    11    27 1   
    25    12    28 1   
    26    13    14 2   
    27    13    19 1   
    28    13    29 1   
    29    14    18 1   
    30    14    30 1   
    31    15    17 ar  
    32    15    20 1   
    33    16    20 1   
    34    16    31 1   
    35    16    32 1   
    36    16    33 1   
    37    17    34 1   
@<TRIPOS>SUBSTRUCTURE
     1 TLK         1 TEMP              0 ****  ****    0 ROOT
