@<TRIPOS>MOLECULE
TLM
   28    28     1     0     0
SMALL
No Charge or Current Charge


@<TRIPOS>ATOM
      1 S1          34.1800    28.7670    32.1900 ss         1 TLM      -0.370600
      2 C1          35.9330    28.8760    31.7970 c          1 TLM       0.636900
      3 C2          36.1020    29.5290    30.4820 ce         1 TLM      -0.260400
      4 C3          34.9840    29.9010    29.8340 c2         1 TLM       0.133900
      5 C4          33.6770    29.6140    30.6020 c5         1 TLM       0.138400
      6 C5          32.8400    28.5980    29.7970 c2         1 TLM      -0.236200
      7 C6          31.5860    28.1940    30.1520 ce         1 TLM      -0.028200
      8 C7          30.9110    27.2180    29.2690 ce         1 TLM      -0.197000
      9 C8          29.6010    26.8730    29.3030 c2         1 TLM      -0.289000
     10 O1          36.8310    28.4670    32.5190 o          1 TLM      -0.487100
     11 C9          37.5130    29.6840    29.9190 c3         1 TLM      -0.014900
     12 O2          34.9870    30.4800    28.6170 oh         1 TLM      -0.514100
     13 C10         32.9720    30.9610    30.9180 c3         1 TLM      -0.072100
     14 C11         30.8200    28.5960    31.4150 c3         1 TLM      -0.063900
     15 H51         33.2740    28.1940    28.8810 ha         1 TLM       0.179000
     16 H71         31.5430    26.7500    28.5110 ha         1 TLM       0.171000
     17 H81         28.8880    27.3050    30.0050 ha         1 TLM       0.167000
     18 H82         29.1940    26.1440    28.6010 ha         1 TLM       0.167000
     19 H91         37.5220    29.6520    28.8230 hc         1 TLM       0.050367
     20 H92         37.9540    30.6400    30.2250 hc         1 TLM       0.050367
     21 H93         38.1810    28.8860    30.2640 hc         1 TLM       0.050367
     22 HO2         34.0550    30.6370    28.3560 ho         1 TLM       0.478000
     23 H101        32.5320    31.4000    30.0150 hc         1 TLM       0.052700
     24 H102        32.1770    30.8690    31.6620 hc         1 TLM       0.052700
     25 H103        33.6890    31.6860    31.3210 hc         1 TLM       0.052700
     26 H111        30.1870    27.7810    31.7830 hc         1 TLM       0.050700
     27 H112        31.4680    28.8430    32.2580 hc         1 TLM       0.050700
     28 H113        30.1710    29.4590    31.2240 hc         1 TLM       0.050700
@<TRIPOS>BOND
     1     1     2 1   
     2     1     5 1   
     3     2     3 1   
     4     2    10 2   
     5     3     4 2   
     6     3    11 1   
     7     4     5 1   
     8     4    12 1   
     9     5     6 1   
    10     5    13 1   
    11     6     7 2   
    12     6    15 1   
    13     7     8 1   
    14     7    14 1   
    15     8     9 2   
    16     8    16 1   
    17     9    17 1   
    18     9    18 1   
    19    11    19 1   
    20    11    20 1   
    21    11    21 1   
    22    12    22 1   
    23    13    23 1   
    24    13    24 1   
    25    13    25 1   
    26    14    26 1   
    27    14    27 1   
    28    14    28 1   
@<TRIPOS>SUBSTRUCTURE
     1 TLM         1 TEMP              0 ****  ****    0 ROOT
