@<TRIPOS>MOLECULE
TLM
   28    28     1     0     0
SMALL
abcg2


@<TRIPOS>ATOM
      1 S1          34.1270    28.9410    32.2280 ss         1 TLM      -0.370600
      2 C1          35.8800    28.9460    31.8340 c          1 TLM       0.636900
      3 C2          36.1080    29.4720    30.5020 ce         1 TLM      -0.260400
      4 C3          34.9710    29.8280    29.8740 c2         1 TLM       0.133900
      5 C4          33.6450    29.6700    30.5930 c5         1 TLM       0.138400
      6 C5          32.7510    28.7320    29.8080 c2         1 TLM      -0.236200
      7 C6          31.5490    28.2420    30.1570 ce         1 TLM      -0.028200
      8 C7          30.8740    27.3650    29.1970 ce         1 TLM      -0.197000
      9 C8          29.6790    26.7920    29.3660 c2         1 TLM      -0.289000
     10 O1          36.7200    28.5450    32.6200 o          1 TLM      -0.487100
     11 C9          37.4960    29.5790    29.9560 c3         1 TLM      -0.014900
     12 O2          34.9800    30.3320    28.6310 oh         1 TLM      -0.514100
     13 C10         33.0160    31.0630    30.8060 c3         1 TLM      -0.072100
     14 C11         30.8560    28.5110    31.4610 c3         1 TLM      -0.063900
     15 H51         33.1430    28.4330    28.8420 ha         1 TLM       0.179000
     16 H71         31.4160    27.1850    28.2730 ha         1 TLM       0.171000
     17 H81         29.0880    26.9330    30.2620 ha         1 TLM       0.167000
     18 H82         29.2560    26.1590    28.5970 ha         1 TLM       0.167000
     19 H91         37.4850    29.9630    28.9380 hc         1 TLM       0.050367
     20 H92         38.1040    30.2460    30.5720 hc         1 TLM       0.050367
     21 H93         37.9860    28.6030    29.9550 hc         1 TLM       0.050367
     22 HO2         34.0890    30.5370    28.3130 ho         1 TLM       0.478000
     23 H101        32.7540    31.5090    29.8450 hc         1 TLM       0.052700
     24 H102        32.1050    30.9890    31.3920 hc         1 TLM       0.052700
     25 H103        33.7190    31.7180    31.3210 hc         1 TLM       0.052700
     26 H111        30.6120    27.5710    31.9610 hc         1 TLM       0.050700
     27 H112        31.4500    29.1070    32.1470 hc         1 TLM       0.050700
     28 H113        29.9120    29.0360    31.2910 hc         1 TLM       0.050700
@<TRIPOS>BOND
     1     1     2 1   
     2     1     5 1   
     3     2     3 1   
     4     2    10 2   
     5     3     4 2   
     6     3    11 1   
     7     4     5 1   
     8     4    12 1   
     9     5     6 1   
    10     5    13 1   
    11     6     7 2   
    12     6    15 1   
    13     7     8 1   
    14     7    14 1   
    15     8     9 2   
    16     8    16 1   
    17     9    17 1   
    18     9    18 1   
    19    11    19 1   
    20    11    20 1   
    21    11    21 1   
    22    12    22 1   
    23    13    23 1   
    24    13    24 1   
    25    13    25 1   
    26    14    26 1   
    27    14    27 1   
    28    14    28 1   
@<TRIPOS>SUBSTRUCTURE
     1 TLM         1 TEMP              0 ****  ****    0 ROOT
