@<TRIPOS>MOLECULE
TLO
   49    51     1     0     0
SMALL
No Charge or Current Charge


@<TRIPOS>ATOM
      1 N1           3.3690    -0.7760     0.4690 n          1 TLO      -0.310000
      2 C2           4.2800     0.0010    -0.2860 c          1 TLO       0.621000
      3 O2           3.9660     0.8250    -1.1300 o          1 TLO      -0.532000
      4 N3           5.5960    -0.1890    -0.0040 ns         1 TLO      -0.468500
      5 C4           6.1550    -1.0200     0.9100 c          1 TLO       0.596200
      6 O4           7.3670    -1.0770     1.0470 o          1 TLO      -0.562000
      7 C5           5.1770    -1.8090     1.6870 cc         1 TLO      -0.297400
      8 C6           3.8270    -1.6630     1.4430 cd         1 TLO       0.022600
      9 PA          -2.0970     0.6900    -3.5450 p5         1 TLO       1.453800
     10 PB          -4.0490     0.2790    -1.7960 p5         1 TLO       1.453800
     11 CG          -3.4930     0.1850     0.8470 ca         1 TLO       0.226100
     12 CZ          -2.4150    -0.9320     3.2070 ca         1 TLO      -0.186000
     13 C1           1.8990    -0.6960     0.2310 c5         1 TLO       0.346700
     14 O1A         -2.2310     2.1200    -3.9560 o          1 TLO      -0.847500
     15 O1B         -4.4970    -1.1450    -1.8830 o          1 TLO      -0.835000
     16 C7           1.3480     0.5140     1.0510 c5         1 TLO      -0.154400
     17 O2A         -2.7290    -0.2530    -4.5160 o          1 TLO      -0.847500
     18 O2B         -4.9040     1.1970    -2.6110 o          1 TLO      -0.835000
     19 C3           0.9440     1.5080    -0.0690 c5         1 TLO       0.127300
     20 O3          -0.0890     2.4000     0.3610 oh         1 TLO      -0.701000
     21 O3A         -2.5010     0.4260    -2.0490 os         1 TLO      -0.685800
     22 O3B         -4.0370     0.7910    -0.2620 os         1 TLO      -0.456500
     23 C8           0.4860     0.5030    -1.1660 c5         1 TLO       0.165300
     24 O6           1.5530    -0.4690    -1.1480 os         1 TLO      -0.404000
     25 C9           0.3410     1.1180    -2.5900 c3         1 TLO       0.229600
     26 O5          -0.5350     0.3060    -3.3950 os         1 TLO      -0.566400
     27 C5M          5.7550    -2.7440     2.7220 c3         1 TLO      -0.008900
     28 CD1         -2.6920    -0.9790     0.7830 ca         1 TLO      -0.151500
     29 CD2         -3.7410     0.7820     2.0970 ca         1 TLO      -0.151500
     30 CE1         -2.1550    -1.5330     1.9630 ca         1 TLO      -0.112000
     31 CE2         -3.2090     0.2260     3.2750 ca         1 TLO      -0.112000
     32 HN3          6.2410     0.3680    -0.5410 hn         1 TLO       0.337500
     33 H6           3.0470    -2.2080     1.9710 h4         1 TLO       0.199000
     34 HZ          -2.0000    -1.3610     4.1170 ha         1 TLO       0.073000
     35 H1           1.4550    -1.6380     0.5780 h2         1 TLO       0.045700
     36 H2           0.4810     0.2000     1.6450 hc         1 TLO       0.051700
     37 H2'A         2.0780     0.9430     1.7480 hc         1 TLO       0.051700
     38 H3           1.8190     2.0750    -0.4210 h1         1 TLO       0.070700
     39 HO3          0.2560     2.8890     1.1430 ho         1 TLO       0.488000
     40 H4          -0.4450     0.0070    -0.8640 h1         1 TLO       0.072700
     41 H5          -0.0560     2.1380    -2.4900 h1         1 TLO       0.030200
     42 H5'A         1.3320     1.1980    -3.0560 h1         1 TLO       0.030200
     43 H5M          6.3120    -2.1870     3.4850 hc         1 TLO       0.036033
     44 H5MA         4.9680    -3.3120     3.2320 hc         1 TLO       0.036033
     45 H5MB         6.4410    -3.4660     2.2600 hc         1 TLO       0.036033
     46 HD1         -2.4730    -1.4590    -0.1650 ha         1 TLO       0.132500
     47 HD2         -4.3520     1.6800     2.1480 ha         1 TLO       0.132500
     48 HE1         -1.5390    -2.4290     1.9130 ha         1 TLO       0.078500
     49 HE2         -3.4100     0.6920     4.2380 ha         1 TLO       0.078500
@<TRIPOS>BOND
     1     1     2 1   
     2     1     8 1   
     3     1    13 1   
     4     2     3 2   
     5     2     4 1   
     6     4     5 1   
     7     4    32 1   
     8     5     6 2   
     9     5     7 1   
    10     7     8 2   
    11     7    27 1   
    12     8    33 1   
    13     9    14 1   
    14     9    17 1   
    15     9    21 1   
    16     9    26 1   
    17    10    15 1   
    18    10    18 1   
    19    10    21 1   
    20    10    22 1   
    21    11    22 1   
    22    11    28 ar  
    23    11    29 ar  
    24    12    30 ar  
    25    12    31 ar  
    26    12    34 1   
    27    13    16 1   
    28    13    24 1   
    29    13    35 1   
    30    16    19 1   
    31    16    36 1   
    32    16    37 1   
    33    19    20 1   
    34    19    23 1   
    35    19    38 1   
    36    20    39 1   
    37    23    24 1   
    38    23    25 1   
    39    23    40 1   
    40    25    26 1   
    41    25    41 1   
    42    25    42 1   
    43    27    43 1   
    44    27    44 1   
    45    27    45 1   
    46    28    30 ar  
    47    28    46 1   
    48    29    31 ar  
    49    29    47 1   
    50    30    48 1   
    51    31    49 1   
@<TRIPOS>SUBSTRUCTURE
     1 TLO         1 TEMP              0 ****  ****    0 ROOT
