@<TRIPOS>MOLECULE
TLO
   49    51     1     0     0
SMALL
bcc


@<TRIPOS>ATOM
      1 N1           4.5500    -0.4010     0.5290 n          1 TLO      -0.377000
      2 C2           4.6780    -0.3660    -0.8400 c          1 TLO       0.830500
      3 O2           4.3290     0.5740    -1.5240 o          1 TLO      -0.607500
      4 N3           5.2460    -1.4880    -1.3860 ns         1 TLO      -0.602500
      5 C4           5.6850    -2.6260    -0.7350 c          1 TLO       0.738700
      6 O4           6.1790    -3.5470    -1.3610 o          1 TLO      -0.637500
      7 C5           5.4960    -2.6030     0.7010 cc         1 TLO      -0.297400
      8 C6           4.9400    -1.5050     1.2420 cd         1 TLO       0.072600
      9 PA          -1.3820     1.9780    -0.8390 p5         1 TLO       1.453800
     10 PB          -3.5620     0.0880    -0.7870 p5         1 TLO       1.453800
     11 CG          -5.3640    -1.0610     0.6910 ca         1 TLO       0.226100
     12 CZ          -7.7430    -2.5050     0.7800 ca         1 TLO      -0.204000
     13 C1           3.9300     0.7190     1.2340 c5         1 TLO       0.323500
     14 O1A         -1.8380     3.3190    -0.3610 o          1 TLO      -0.847500
     15 O1B         -3.1640    -1.1500    -1.5200 o          1 TLO      -0.835000
     16 C7           4.5730     2.0920     1.0130 c5         1 TLO      -0.154400
     17 O2A         -1.2530     1.6940    -2.3020 o          1 TLO      -0.847500
     18 O2B         -4.4580     1.1060    -1.4120 o          1 TLO      -0.835000
     19 C3           3.5090     2.9100     0.2800 c5         1 TLO       0.104100
     20 O3           3.3920     4.2430     0.7080 oh         1 TLO      -0.578800
     21 O3A         -2.2590     0.7990    -0.0990 os         1 TLO      -0.685800
     22 O3B         -4.2010    -0.3530     0.6930 os         1 TLO      -0.456500
     23 C8           2.2190     2.1630     0.6240 c5         1 TLO       0.142100
     24 O6           2.5870     0.8150     0.8530 os         1 TLO      -0.357600
     25 C9           1.1900     2.2350    -0.4750 c3         1 TLO       0.206400
     26 O5           0.0120     1.5690    -0.0660 os         1 TLO      -0.543200
     27 C5M          5.9200    -3.7860     1.5070 c3         1 TLO      -0.008900
     28 CD1         -5.3390    -2.4500     0.6000 ca         1 TLO      -0.169500
     29 CD2         -6.5790    -0.3950     0.8120 ca         1 TLO      -0.169500
     30 CE1         -6.5280    -3.1650     0.6510 ca         1 TLO      -0.130000
     31 CE2         -7.7630    -1.1180     0.8630 ca         1 TLO      -0.130000
     32 HN3          5.3530    -1.4690    -2.3930 hn         1 TLO       0.337500
     33 H6           4.7740    -1.4360     2.3090 h4         1 TLO       0.149000
     34 HZ          -8.6670    -3.0680     0.8200 ha         1 TLO       0.091000
     35 H1           4.0030     0.4440     2.2890 h2         1 TLO       0.045700
     36 H2           4.7650     2.5470     1.9860 hc         1 TLO       0.051700
     37 H2'A         5.5220     2.0390     0.4830 hc         1 TLO       0.051700
     38 H3           3.6840     2.8670    -0.7990 h1         1 TLO       0.070700
     39 HO3          4.0990     4.7530     0.3020 ho         1 TLO       0.389000
     40 H4           1.8010     2.5960     1.5450 h1         1 TLO       0.072700
     41 H5           1.0060     3.2950    -0.6860 h1         1 TLO       0.030200
     42 H5'A         1.5970     1.7820    -1.3860 h1         1 TLO       0.030200
     43 H5M          6.9910    -3.9690     1.4100 hc         1 TLO       0.036033
     44 H5MA         5.7000    -3.6370     2.5630 hc         1 TLO       0.036033
     45 H5MB         5.4070    -4.6920     1.1830 hc         1 TLO       0.036033
     46 HD1         -4.3930    -2.9650     0.5000 ha         1 TLO       0.150500
     47 HD2         -6.5930     0.6860     0.8770 ha         1 TLO       0.150500
     48 HE1         -6.5020    -4.2450     0.5870 ha         1 TLO       0.096500
     49 HE2         -8.7040    -0.5940     0.9640 ha         1 TLO       0.096500
@<TRIPOS>BOND
     1     1     2 1   
     2     1     8 1   
     3     1    13 1   
     4     2     3 2   
     5     2     4 1   
     6     4     5 1   
     7     4    32 1   
     8     5     6 2   
     9     5     7 1   
    10     7     8 2   
    11     7    27 1   
    12     8    33 1   
    13     9    14 1   
    14     9    17 1   
    15     9    21 1   
    16     9    26 1   
    17    10    15 1   
    18    10    18 1   
    19    10    21 1   
    20    10    22 1   
    21    11    22 1   
    22    11    28 ar  
    23    11    29 ar  
    24    12    30 ar  
    25    12    31 ar  
    26    12    34 1   
    27    13    16 1   
    28    13    24 1   
    29    13    35 1   
    30    16    19 1   
    31    16    36 1   
    32    16    37 1   
    33    19    20 1   
    34    19    23 1   
    35    19    38 1   
    36    20    39 1   
    37    23    24 1   
    38    23    25 1   
    39    23    40 1   
    40    25    26 1   
    41    25    41 1   
    42    25    42 1   
    43    27    43 1   
    44    27    44 1   
    45    27    45 1   
    46    28    30 ar  
    47    28    46 1   
    48    29    31 ar  
    49    29    47 1   
    50    30    48 1   
    51    31    49 1   
@<TRIPOS>SUBSTRUCTURE
     1 TLO         1 TEMP              0 ****  ****    0 ROOT
