@<TRIPOS>MOLECULE
TLQ
   37    40     1     0     0
SMALL
No Charge or Current Charge


@<TRIPOS>ATOM
      1 C01         21.2270    21.1050    -4.0130 c          1 TLQ       0.583500
      2 C02         22.1480    21.2570    -2.8200 ca         1 TLQ      -0.184600
      3 C03         23.3830    21.9080    -3.0260 ca         1 TLQ      -0.039000
      4 C04         24.2720    22.1140    -1.9670 ca         1 TLQ      -0.126000
      5 C05         23.9550    21.6810    -0.6720 ca         1 TLQ       0.035800
      6 C07         24.6570    22.7760     1.4400 cc         1 TLQ       0.471000
      7 C08         23.4710    23.6130     1.7070 ca         1 TLQ      -0.127500
      8 C09         22.7210    24.2050     0.6630 ca         1 TLQ      -0.082000
      9 C10         21.6160    25.0250     0.9490 ca         1 TLQ      -0.115500
     10 C11         21.2540    25.2830     2.2800 ca         1 TLQ      -0.099000
     11 C12         22.0090    24.7320     3.3260 ca         1 TLQ      -0.115500
     12 C13         23.1150    23.9130     3.0420 ca         1 TLQ      -0.082000
     13 C15         26.5780    21.7790     1.6540 cd         1 TLQ       0.235900
     14 C16         26.0810    21.3230     0.4590 cc         1 TLQ      -0.216000
     15 C17         22.7350    20.9920    -0.4410 ca         1 TLQ      -0.047000
     16 C18         21.8240    20.7820    -1.5160 ca         1 TLQ       0.010000
     17 C19         20.6160    20.0850    -1.2560 ca         1 TLQ      -0.116000
     18 C20         20.3140    19.6150     0.0300 ca         1 TLQ      -0.086000
     19 C21         21.2130    19.8200     1.0810 ca         1 TLQ      -0.106000
     20 C22         22.4170    20.4970     0.8490 ca         1 TLQ      -0.080000
     21 N06         24.8700    21.9560     0.3460 na         1 TLQ      -0.084300
     22 N14         25.6970    22.6630     2.2600 nd         1 TLQ      -0.665000
     23 H1          20.1740    20.8170    -3.8200 h4         1 TLQ      -0.004800
     24 H4          23.6560    22.2740    -4.0150 ha         1 TLQ       0.141000
     25 H5          25.2110    22.6330    -2.1520 ha         1 TLQ       0.135000
     26 H6          22.9940    24.0530    -0.3770 ha         1 TLQ       0.123000
     27 H7          21.0440    25.4670     0.1360 ha         1 TLQ       0.115000
     28 H8          20.3990    25.9190     2.5000 ha         1 TLQ       0.114000
     29 H9          21.7390    24.9410     4.3590 ha         1 TLQ       0.115000
     30 H10         23.6890    23.4960     3.8670 ha         1 TLQ       0.123000
     31 H11         27.5190    21.5120     2.1200 h4         1 TLQ       0.041100
     32 H12         26.4730    20.6210    -0.2660 h4         1 TLQ       0.162000
     33 H13         19.8910    19.8790    -2.0350 ha         1 TLQ       0.116000
     34 H14         19.3820    19.0820     0.2090 ha         1 TLQ       0.118000
     35 H15         20.9810    19.4470     2.0770 ha         1 TLQ       0.121000
     36 H16         23.0980    20.6190     1.6850 ha         1 TLQ       0.131000
     37 O1          21.5950    21.2950    -5.1680 o          1 TLQ      -0.517100
@<TRIPOS>BOND
     1     1     2 1   
     2     1    23 1   
     3     1    37 2   
     4     2     3 ar  
     5     2    16 ar  
     6     3     4 ar  
     7     3    24 1   
     8     4     5 ar  
     9     4    25 1   
    10     5    15 ar  
    11     5    21 1   
    12     6     7 1   
    13     6    21 1   
    14     6    22 2   
    15     7     8 ar  
    16     7    12 ar  
    17     8     9 ar  
    18     8    26 1   
    19     9    10 ar  
    20     9    27 1   
    21    10    11 ar  
    22    10    28 1   
    23    11    12 ar  
    24    11    29 1   
    25    12    30 1   
    26    13    14 2   
    27    13    22 1   
    28    13    31 1   
    29    14    21 1   
    30    14    32 1   
    31    15    16 ar  
    32    15    20 ar  
    33    16    17 ar  
    34    17    18 ar  
    35    17    33 1   
    36    18    19 ar  
    37    18    34 1   
    38    19    20 ar  
    39    19    35 1   
    40    20    36 1   
@<TRIPOS>SUBSTRUCTURE
     1 TLQ         1 TEMP              0 ****  ****    0 ROOT
