@<TRIPOS>MOLECULE
TLQ
   37    40     1     0     0
SMALL
abcg2


@<TRIPOS>ATOM
      1 C01         21.2740    21.0470    -3.9780 c          1 TLQ       0.583500
      2 C02         22.1670    21.2320    -2.8150 ca         1 TLQ      -0.184600
      3 C03         23.3870    21.8290    -3.0350 ca         1 TLQ      -0.039000
      4 C04         24.2730    22.0720    -1.9820 ca         1 TLQ      -0.126000
      5 C05         23.9380    21.7000    -0.7090 ca         1 TLQ       0.035800
      6 C07         24.6770    22.7840     1.4260 cc         1 TLQ       0.471000
      7 C08         23.4890    23.6030     1.6800 ca         1 TLQ      -0.127500
      8 C09         22.7910    24.2480     0.6590 ca         1 TLQ      -0.082000
      9 C10         21.6760    25.0190     0.9530 ca         1 TLQ      -0.115500
     10 C11         21.2480    25.1640     2.2650 ca         1 TLQ      -0.099000
     11 C12         21.9490    24.5380     3.2890 ca         1 TLQ      -0.115500
     12 C13         23.0610    23.7630     2.9990 ca         1 TLQ      -0.082000
     13 C15         26.5980    21.8610     1.6300 cd         1 TLQ       0.235900
     14 C16         26.0820    21.3830     0.4640 cc         1 TLQ      -0.216000
     15 C17         22.7160    21.0340    -0.4300 ca         1 TLQ      -0.047000
     16 C18         21.8030    20.8140    -1.5000 ca         1 TLQ       0.010000
     17 C19         20.5780    20.1680    -1.2030 ca         1 TLQ      -0.116000
     18 C20         20.2840    19.7570     0.0670 ca         1 TLQ      -0.086000
     19 C21         21.2020    19.9550     1.1140 ca         1 TLQ      -0.106000
     20 C22         22.3920    20.5790     0.8700 ca         1 TLQ      -0.080000
     21 N06         24.8480    21.9720     0.3390 na         1 TLQ      -0.084300
     22 N14         25.7210    22.7260     2.2140 nd         1 TLQ      -0.665000
     23 H1          20.2870    20.6030    -3.7830 h4         1 TLQ      -0.004800
     24 H4          23.6620    22.1390    -4.0350 ha         1 TLQ       0.141000
     25 H5          25.2120    22.5770    -2.1680 ha         1 TLQ       0.135000
     26 H6          23.1220    24.1730    -0.3680 ha         1 TLQ       0.123000
     27 H7          21.1450    25.5150     0.1500 ha         1 TLQ       0.115000
     28 H8          20.3770    25.7650     2.4910 ha         1 TLQ       0.114000
     29 H9          21.6250    24.6480     4.3160 ha         1 TLQ       0.115000
     30 H10         23.5970    23.2680     3.7980 ha         1 TLQ       0.123000
     31 H11         27.5530    21.6290     2.0740 h4         1 TLQ       0.041100
     32 H12         26.4540    20.6840    -0.2660 h4         1 TLQ       0.162000
     33 H13         19.8500    19.9810    -1.9800 ha         1 TLQ       0.116000
     34 H14         19.3410    19.2650     0.2660 ha         1 TLQ       0.118000
     35 H15         20.9670    19.6080     2.1110 ha         1 TLQ       0.121000
     36 H16         23.0960    20.7120     1.6790 ha         1 TLQ       0.131000
     37 O1          21.5760    21.3620    -5.1060 o          1 TLQ      -0.517100
@<TRIPOS>BOND
     1     1     2 1   
     2     1    23 1   
     3     1    37 2   
     4     2     3 ar  
     5     2    16 ar  
     6     3     4 ar  
     7     3    24 1   
     8     4     5 ar  
     9     4    25 1   
    10     5    15 ar  
    11     5    21 1   
    12     6     7 1   
    13     6    21 1   
    14     6    22 2   
    15     7     8 ar  
    16     7    12 ar  
    17     8     9 ar  
    18     8    26 1   
    19     9    10 ar  
    20     9    27 1   
    21    10    11 ar  
    22    10    28 1   
    23    11    12 ar  
    24    11    29 1   
    25    12    30 1   
    26    13    14 2   
    27    13    22 1   
    28    13    31 1   
    29    14    21 1   
    30    14    32 1   
    31    15    16 ar  
    32    15    20 ar  
    33    16    17 ar  
    34    17    18 ar  
    35    17    33 1   
    36    18    19 ar  
    37    18    34 1   
    38    19    20 ar  
    39    19    35 1   
    40    20    36 1   
@<TRIPOS>SUBSTRUCTURE
     1 TLQ         1 TEMP              0 ****  ****    0 ROOT
