@<TRIPOS>MOLECULE
TLR
   51    53     1     0     0
SMALL
No Charge or Current Charge


@<TRIPOS>ATOM
      1 O10         43.1000    15.4700    16.4020 o          1 TLR      -0.659100
      2 O13         41.1050    16.3090    17.9050 oh         1 TLR      -0.506100
      3 O15         38.4870    15.7630    18.7830 o          1 TLR      -0.502000
      4 C01         42.1460     9.5870    20.2740 c3         1 TLR       0.161900
      5 C03         43.3480    10.5530    18.3660 ca         1 TLR       0.580300
      6 C04         43.8840    11.6990    17.7600 ca         1 TLR      -0.172000
      7 C05         44.5300    11.5940    16.5170 ca         1 TLR      -0.017300
      8 C06         45.1080    12.8210    15.8200 c3         1 TLR      -0.063100
      9 C07         44.1800    13.3710    14.7160 c3         1 TLR       0.109000
     10 C09         42.3890    14.5290    16.0600 c          1 TLR       0.628300
     11 C11         40.9920    14.3010    16.5500 cc         1 TLR      -0.065600
     12 C12         40.4390    15.2070    17.4530 cd         1 TLR       0.088900
     13 C14         39.0560    15.0200    17.9940 c          1 TLR       0.552200
     14 C17         39.0360    13.0280    16.6410 cd         1 TLR       0.473900
     15 C19         38.2140    11.8320    16.2240 c3         1 TLR      -0.070400
     16 C20         38.9770    10.4990    16.2410 ca         1 TLR      -0.020300
     17 C21         39.6320    10.1130    15.0520 ca         1 TLR      -0.101000
     18 C22         40.3570     8.9160    14.9800 ca         1 TLR      -0.084000
     19 C23         40.4320     8.0820    16.1010 ca         1 TLR      -0.107000
     20 C24         39.7880     8.4470    17.2930 ca         1 TLR      -0.058000
     21 C25         39.0580     9.6580    17.3910 ca         1 TLR      -0.173300
     22 C26         38.3770    10.0240    18.7260 c3         1 TLR       0.342300
     23 C30         44.6020    10.3210    15.9330 ca         1 TLR      -0.207000
     24 C31         44.0440     9.2220    16.6070 ca         1 TLR       0.370900
     25 F27         38.7520    11.2440    19.1690 f          1 TLR      -0.113333
     26 F28         38.6670     9.1580    19.7240 f          1 TLR      -0.113333
     27 F29         37.0300    10.0340    18.6150 f          1 TLR      -0.113333
     28 N08         42.8090    13.5540    15.1930 ns         1 TLR      -0.463900
     29 N16         38.4530    13.8990    17.5150 ns         1 TLR      -0.412400
     30 N18         40.2550    13.1870    16.1300 nc         1 TLR      -0.613300
     31 N32         43.4330     9.3260    17.8060 nb         1 TLR      -0.756000
     32 H1          41.9970    16.2790    17.4650 ho         1 TLR       0.526000
     33 H2          41.6790     9.9150    21.2110 h1         1 TLR       0.047700
     34 H3          41.3760     9.1040    19.6610 h1         1 TLR       0.047700
     35 H4          42.9140     8.8410    20.5200 h1         1 TLR       0.047700
     36 H5          43.7870    12.6580    18.2590 ha         1 TLR       0.142000
     37 H6          46.0820    12.5820    15.3770 hc         1 TLR       0.067700
     38 H7          45.2960    13.6160    16.5530 hc         1 TLR       0.067700
     39 H8          44.1600    12.6640    13.8760 h1         1 TLR       0.061700
     40 H9          44.5680    14.3290    14.3450 h1         1 TLR       0.061700
     41 H10         37.8440    12.0210    15.2100 hc         1 TLR       0.076700
     42 H11         37.3040    11.7640    16.8270 hc         1 TLR       0.076700
     43 H12         39.5840    10.7520    14.1740 ha         1 TLR       0.120000
     44 H13         40.8580     8.6350    14.0560 ha         1 TLR       0.120000
     45 H14         40.9920     7.1510    16.0500 ha         1 TLR       0.125000
     46 H15         39.8670     7.7720    18.1430 ha         1 TLR       0.138000
     47 H16         45.0810    10.1750    14.9690 ha         1 TLR       0.122000
     48 H17         44.0920     8.2240    16.1730 h4         1 TLR       0.016100
     49 H18         42.1180    12.8330    15.0110 hn         1 TLR       0.351500
     50 H19         37.5170    13.7260    17.8530 hn         1 TLR       0.335500
     51 O02         42.7240    10.7100    19.5810 os         1 TLR      -0.465300
@<TRIPOS>BOND
     1     1    10 2   
     2     2    12 1   
     3     2    32 1   
     4     3    13 2   
     5     4    33 1   
     6     4    34 1   
     7     4    35 1   
     8     4    51 1   
     9     5     6 ar  
    10     5    31 ar  
    11     5    51 1   
    12     6     7 ar  
    13     6    36 1   
    14     7     8 1   
    15     7    23 ar  
    16     8     9 1   
    17     8    37 1   
    18     8    38 1   
    19     9    28 1   
    20     9    39 1   
    21     9    40 1   
    22    10    11 1   
    23    10    28 1   
    24    11    12 2   
    25    11    30 1   
    26    12    13 1   
    27    13    29 1   
    28    14    15 1   
    29    14    29 1   
    30    14    30 2   
    31    15    16 1   
    32    15    41 1   
    33    15    42 1   
    34    16    17 ar  
    35    16    21 ar  
    36    17    18 ar  
    37    17    43 1   
    38    18    19 ar  
    39    18    44 1   
    40    19    20 ar  
    41    19    45 1   
    42    20    21 ar  
    43    20    46 1   
    44    21    22 1   
    45    22    25 1   
    46    22    26 1   
    47    22    27 1   
    48    23    24 ar  
    49    23    47 1   
    50    24    31 ar  
    51    24    48 1   
    52    28    49 1   
    53    29    50 1   
@<TRIPOS>SUBSTRUCTURE
     1 TLR         1 TEMP              0 ****  ****    0 ROOT
