@<TRIPOS>MOLECULE
TLR
   51    53     1     0     0
SMALL
abcg2


@<TRIPOS>ATOM
      1 O10         42.8500    15.4710    16.1250 o          1 TLR      -0.659100
      2 O13         40.8130    16.6910    17.1560 oh         1 TLR      -0.506100
      3 O15         38.1590    16.4100    17.9030 o          1 TLR      -0.502000
      4 C01         42.5850     8.8800    20.4390 c3         1 TLR       0.161900
      5 C03         43.4490    10.1120    18.5870 ca         1 TLR       0.580300
      6 C04         43.8130    11.3540    18.0470 ca         1 TLR      -0.172000
      7 C05         44.4590    11.3830    16.8250 ca         1 TLR      -0.017300
      8 C06         44.8910    12.6820    16.2010 c3         1 TLR      -0.063100
      9 C07         43.9900    13.1060    15.0310 c3         1 TLR       0.109000
     10 C09         42.1600    14.4400    15.9830 c          1 TLR       0.628300
     11 C11         40.7400    14.4130    16.4190 cc         1 TLR      -0.065600
     12 C12         40.1730    15.5330    16.9700 cd         1 TLR       0.088900
     13 C14         38.7780    15.4810    17.3960 c          1 TLR       0.552200
     14 C17         38.8280    13.1720    16.6160 cd         1 TLR       0.473900
     15 C19         38.0120    11.9190    16.4160 c3         1 TLR      -0.070400
     16 C20         38.8770    10.6980    16.2250 ca         1 TLR      -0.020300
     17 C21         39.2910    10.3710    14.9370 ca         1 TLR      -0.101000
     18 C22         40.1490     9.3050    14.6990 ca         1 TLR      -0.084000
     19 C23         40.6050     8.5340    15.7600 ca         1 TLR      -0.107000
     20 C24         40.1900     8.8300    17.0510 ca         1 TLR      -0.058000
     21 C25         39.3340     9.9030    17.2870 ca         1 TLR      -0.173300
     22 C26         38.9150    10.1950    18.7020 c3         1 TLR       0.342300
     23 C30         44.6870    10.1610    16.1740 ca         1 TLR      -0.207000
     24 C31         44.2810     8.9950    16.7870 ca         1 TLR       0.370900
     25 F27         39.2740    11.4420    19.1000 f          1 TLR      -0.113333
     26 F28         39.4500     9.3430    19.5960 f          1 TLR      -0.113333
     27 F29         37.5690    10.1210    18.8720 f          1 TLR      -0.113333
     28 N08         42.6120    13.3110    15.4380 ns         1 TLR      -0.463900
     29 N16         38.1940    14.2450    17.1730 ns         1 TLR      -0.412400
     30 N18         40.0610    13.2360    16.2470 nc         1 TLR      -0.613300
     31 N32         43.6760     8.9560    17.9860 nb         1 TLR      -0.756000
     32 H1          41.7380    16.5350    16.8180 ho         1 TLR       0.526000
     33 H2          42.1090     9.1350    21.3830 h1         1 TLR       0.047700
     34 H3          41.9220     8.2580    19.8410 h1         1 TLR       0.047700
     35 H4          43.5170     8.3430    20.6190 h1         1 TLR       0.047700
     36 H5          43.6040    12.2610    18.5970 ha         1 TLR       0.142000
     37 H6          45.9080    12.5840    15.8150 hc         1 TLR       0.067700
     38 H7          44.8920    13.4730    16.9510 hc         1 TLR       0.067700
     39 H8          43.9930    12.3430    14.2540 h1         1 TLR       0.061700
     40 H9          44.3670    14.0340    14.6010 h1         1 TLR       0.061700
     41 H10         37.4000    12.0670    15.5210 hc         1 TLR       0.076700
     42 H11         37.3170    11.8110    17.2470 hc         1 TLR       0.076700
     43 H12         38.9440    10.9770    14.1100 ha         1 TLR       0.120000
     44 H13         40.4610     9.0800    13.6870 ha         1 TLR       0.120000
     45 H14         41.2790     7.7050    15.5890 ha         1 TLR       0.125000
     46 H15         40.5390     8.2290    17.8760 ha         1 TLR       0.138000
     47 H16         45.1840    10.1280    15.2130 ha         1 TLR       0.122000
     48 H17         44.4490     8.0350    16.3100 h4         1 TLR       0.016100
     49 H18         41.9620    12.5370    15.4190 hn         1 TLR       0.351500
     50 H19         37.2250    14.1560    17.4600 hn         1 TLR       0.335500
     51 O02         42.8420    10.1340    19.7940 os         1 TLR      -0.465300
@<TRIPOS>BOND
     1     1    10 2   
     2     2    12 1   
     3     2    32 1   
     4     3    13 2   
     5     4    33 1   
     6     4    34 1   
     7     4    35 1   
     8     4    51 1   
     9     5     6 ar  
    10     5    31 ar  
    11     5    51 1   
    12     6     7 ar  
    13     6    36 1   
    14     7     8 1   
    15     7    23 ar  
    16     8     9 1   
    17     8    37 1   
    18     8    38 1   
    19     9    28 1   
    20     9    39 1   
    21     9    40 1   
    22    10    11 1   
    23    10    28 1   
    24    11    12 2   
    25    11    30 1   
    26    12    13 1   
    27    13    29 1   
    28    14    15 1   
    29    14    29 1   
    30    14    30 2   
    31    15    16 1   
    32    15    41 1   
    33    15    42 1   
    34    16    17 ar  
    35    16    21 ar  
    36    17    18 ar  
    37    17    43 1   
    38    18    19 ar  
    39    18    44 1   
    40    19    20 ar  
    41    19    45 1   
    42    20    21 ar  
    43    20    46 1   
    44    21    22 1   
    45    22    25 1   
    46    22    26 1   
    47    22    27 1   
    48    23    24 ar  
    49    23    47 1   
    50    24    31 ar  
    51    24    48 1   
    52    28    49 1   
    53    29    50 1   
@<TRIPOS>SUBSTRUCTURE
     1 TLR         1 TEMP              0 ****  ****    0 ROOT
