@<TRIPOS>MOLECULE
TLS
   68    73     1     0     0
SMALL
No Charge or Current Charge


@<TRIPOS>ATOM
      1 C1           0.8990    -2.3330    -0.2020 ca         1 TLS      -0.074200
      2 N2          -0.1970    -2.8190    -0.8530 na         1 TLS      -0.162600
      3 C3           1.2040    -3.2400     0.7720 ca         1 TLS       0.085400
      4 C4           1.6340    -1.1580    -0.4070 ca         1 TLS      -0.038000
      5 C5          -0.5420    -4.0250    -0.2360 cc         1 TLS       0.426800
      6 C6          -0.8640    -2.1070    -1.9580 c3         1 TLS       0.132900
      7 N7           0.3120    -4.3150     0.7670 nd         1 TLS      -0.591100
      8 C8           2.3070    -3.0330     1.6200 ca         1 TLS      -0.026300
      9 C9           2.7290    -0.8940     0.4490 ca         1 TLS      -0.114900
     10 C10         -1.7080    -4.8940    -0.6320 c3         1 TLS      -0.095700
     11 C11         -1.6570    -0.8800    -1.5140 ca         1 TLS      -0.149300
     12 C12          3.0730    -1.8580     1.4390 ca         1 TLS      -0.123000
     13 C13          2.6760    -4.0490     2.6920 c3         1 TLS      -0.033800
     14 C14          3.5470     0.3090     0.2270 cc         1 TLS       0.495400
     15 C15         -1.3990    -5.8140    -1.8360 c3         1 TLS      -0.076400
     16 C16         -1.5790     0.3120    -2.2590 ca         1 TLS      -0.099000
     17 C17         -2.4790    -0.9200    -0.3700 ca         1 TLS      -0.099000
     18 N18          4.2410     1.0200     1.2210 na         1 TLS      -0.165600
     19 N19          3.7080     0.8950    -0.9810 nd         1 TLS      -0.588100
     20 C20         -2.5980    -6.6890    -2.2500 c3         1 TLS      -0.090100
     21 C21         -2.3040     1.4480    -1.8620 ca         1 TLS      -0.088500
     22 C22         -3.2030     0.2180     0.0250 ca         1 TLS      -0.088500
     23 C23          4.8770     2.0560     0.5990 ca         1 TLS      -0.083200
     24 C24          4.1610     0.9040     2.6880 c3         1 TLS       0.061900
     25 C25          4.5450     1.9760    -0.7250 ca         1 TLS       0.076400
     26 C26         -3.1210     1.4270    -0.7070 cp         1 TLS       0.042000
     27 C27          5.7230     3.0530     1.1080 ca         1 TLS      -0.108000
     28 C28          5.0390     2.9120    -1.6450 ca         1 TLS      -0.055000
     29 C29         -3.9180     2.6320    -0.3150 cp         1 TLS      -0.043000
     30 C30          6.2320     4.0050     0.2000 ca         1 TLS      -0.107000
     31 C31          5.8900     3.9350    -1.1710 ca         1 TLS      -0.141000
     32 C32         -3.9200     3.1910     1.0010 ca         1 TLS      -0.098600
     33 C33         -4.7580     3.2400    -1.2830 ca         1 TLS      -0.120000
     34 C34         -4.7460     4.2880     1.3210 ca         1 TLS      -0.097000
     35 C35         -2.9710     2.6090     2.0280 c          1 TLS       0.707600
     36 C36         -5.5730     4.3380    -0.9620 ca         1 TLS      -0.149000
     37 C37         -5.5720     4.8590     0.3410 ca         1 TLS      -0.129000
     38 O38         -3.4180     2.3680     3.1410 o          1 TLS      -0.710000
     39 O39         -1.7820     2.5260     1.7520 o          1 TLS      -0.710000
     40 H4           1.3580    -0.4590    -1.1940 ha         1 TLS       0.144000
     41 H6          -0.0990    -1.8110    -2.6860 h1         1 TLS       0.054200
     42 H6A         -1.5440    -2.7990    -2.4710 h1         1 TLS       0.054200
     43 H10         -2.0050    -5.5120     0.2230 hc         1 TLS       0.064700
     44 H10A        -2.5730    -4.2620    -0.8670 hc         1 TLS       0.064700
     45 H12          3.9490    -1.7060     2.0630 ha         1 TLS       0.104000
     46 H13          2.9220    -5.0190     2.2440 hc         1 TLS       0.041033
     47 H13A         3.5430    -3.7250     3.2800 hc         1 TLS       0.041033
     48 H13B         1.8430    -4.2030     3.3880 hc         1 TLS       0.041033
     49 H15         -1.0890    -5.2040    -2.6930 hc         1 TLS       0.045700
     50 H15A        -0.5510    -6.4640    -1.5850 hc         1 TLS       0.045700
     51 H16         -0.9550     0.3610    -3.1500 ha         1 TLS       0.098500
     52 H17         -2.5660    -1.8330     0.2150 ha         1 TLS       0.098500
     53 H20         -3.4520    -6.0650    -2.5410 hc         1 TLS       0.031367
     54 H20A        -2.3310    -7.3240    -3.1030 hc         1 TLS       0.031367
     55 H20B        -2.9090    -7.3380    -1.4230 hc         1 TLS       0.031367
     56 H21         -2.2310     2.3590    -2.4500 ha         1 TLS       0.124000
     57 H22         -3.8440     0.1620     0.9010 ha         1 TLS       0.124000
     58 H24          5.0070     0.3120     3.0580 h1         1 TLS       0.056367
     59 H24A         4.1890     1.9000     3.1470 h1         1 TLS       0.056367
     60 H24B         3.2200     0.4180     2.9760 h1         1 TLS       0.056367
     61 H27          5.9830     3.0970     2.1640 ha         1 TLS       0.113000
     62 H28          4.7740     2.8490    -2.6970 ha         1 TLS       0.121000
     63 H30          6.8900     4.7950     0.5560 ha         1 TLS       0.103000
     64 H31          6.2870     4.6730    -1.8660 ha         1 TLS       0.104000
     65 H33         -4.7880     2.8380    -2.2930 ha         1 TLS       0.088000
     66 H34         -4.7320     4.7050     2.3260 ha         1 TLS       0.121000
     67 H36         -6.2120     4.7800    -1.7230 ha         1 TLS       0.086000
     68 H37         -6.2050     5.7080     0.5890 ha         1 TLS       0.087000
@<TRIPOS>BOND
     1     1     2 1   
     2     1     3 ar  
     3     1     4 ar  
     4     2     5 1   
     5     2     6 1   
     6     3     7 1   
     7     3     8 ar  
     8     4     9 ar  
     9     4    40 1   
    10     5     7 2   
    11     5    10 1   
    12     6    11 1   
    13     6    41 1   
    14     6    42 1   
    15     8    12 ar  
    16     8    13 1   
    17     9    12 ar  
    18     9    14 1   
    19    10    15 1   
    20    10    43 1   
    21    10    44 1   
    22    11    16 ar  
    23    11    17 ar  
    24    12    45 1   
    25    13    46 1   
    26    13    47 1   
    27    13    48 1   
    28    14    18 1   
    29    14    19 2   
    30    15    20 1   
    31    15    49 1   
    32    15    50 1   
    33    16    21 ar  
    34    16    51 1   
    35    17    22 ar  
    36    17    52 1   
    37    18    23 1   
    38    18    24 1   
    39    19    25 1   
    40    20    53 1   
    41    20    54 1   
    42    20    55 1   
    43    21    26 ar  
    44    21    56 1   
    45    22    26 ar  
    46    22    57 1   
    47    23    25 ar  
    48    23    27 ar  
    49    24    58 1   
    50    24    59 1   
    51    24    60 1   
    52    25    28 ar  
    53    26    29 1   
    54    27    30 ar  
    55    27    61 1   
    56    28    31 ar  
    57    28    62 1   
    58    29    32 ar  
    59    29    33 ar  
    60    30    31 ar  
    61    30    63 1   
    62    31    64 1   
    63    32    34 ar  
    64    32    35 1   
    65    33    36 ar  
    66    33    65 1   
    67    34    37 ar  
    68    34    66 1   
    69    35    38 1   
    70    35    39 1   
    71    36    37 ar  
    72    36    67 1   
    73    37    68 1   
@<TRIPOS>SUBSTRUCTURE
     1 TLS         1 TEMP              0 ****  ****    0 ROOT
