@<TRIPOS>MOLECULE
TLS
   68    73     1     0     0
SMALL
abcg2


@<TRIPOS>ATOM
      1 C1           0.8690    -2.2150    -0.2590 ca         1 TLS      -0.074200
      2 N2          -0.2360    -2.7220    -0.8960 na         1 TLS      -0.162600
      3 C3           1.1450    -3.1240     0.7710 ca         1 TLS       0.085400
      4 C4           1.6340    -1.0840    -0.4910 ca         1 TLS      -0.038000
      5 C5          -0.5780    -3.8700    -0.2420 cc         1 TLS       0.426800
      6 C6          -0.9270    -2.0610    -1.9830 c3         1 TLS       0.132900
      7 N7           0.2260    -4.1400     0.7550 nd         1 TLS      -0.591100
      8 C8           2.2380    -2.9250     1.6210 ca         1 TLS      -0.026300
      9 C9           2.7120    -0.8770     0.3610 ca         1 TLS      -0.114900
     10 C10         -1.6910    -4.7580    -0.6770 c3         1 TLS      -0.095700
     11 C11         -1.6770    -0.8400    -1.5150 ca         1 TLS      -0.149300
     12 C12          3.0020    -1.7930     1.3910 ca         1 TLS      -0.123000
     13 C13          2.5610    -3.9010     2.7090 c3         1 TLS      -0.033800
     14 C14          3.5640     0.2890     0.1130 cc         1 TLS       0.495400
     15 C15         -1.2330    -5.7740    -1.7300 c3         1 TLS      -0.076400
     16 C16         -1.3960     0.4120    -2.0420 ca         1 TLS      -0.099000
     17 C17         -2.6670    -0.9460    -0.5400 ca         1 TLS      -0.099000
     18 N18          4.1070     1.0670     1.0970 na         1 TLS      -0.165600
     19 N19          3.8760     0.7010    -1.0910 nd         1 TLS      -0.588100
     20 C20         -2.3620    -6.7050    -2.1450 c3         1 TLS      -0.090100
     21 C21         -2.0850     1.5370    -1.6050 ca         1 TLS      -0.088500
     22 C22         -3.3460     0.1740    -0.1000 ca         1 TLS      -0.088500
     23 C23          4.8300     2.0470     0.4660 ca         1 TLS      -0.083200
     24 C24          3.8940     1.0020     2.5250 c3         1 TLS       0.061900
     25 C25          4.6680     1.8020    -0.9060 ca         1 TLS       0.076400
     26 C26         -3.0630     1.4380    -0.6210 cp         1 TLS       0.042000
     27 C27          5.5840     3.1100     0.9530 ca         1 TLS      -0.108000
     28 C28          5.2810     2.6390    -1.8400 ca         1 TLS      -0.055000
     29 C29         -3.8330     2.6250    -0.1910 cp         1 TLS      -0.043000
     30 C30          6.1800     3.9310     0.0110 ca         1 TLS      -0.107000
     31 C31          6.0330     3.6990    -1.3650 ca         1 TLS      -0.141000
     32 C32         -4.0760     2.9140     1.1590 ca         1 TLS      -0.098600
     33 C33         -4.3910     3.4460    -1.1730 ca         1 TLS      -0.120000
     34 C34         -4.8890     4.0000     1.4790 ca         1 TLS      -0.097000
     35 C35         -3.4350     2.1410     2.3040 c          1 TLS       0.707600
     36 C36         -5.1660     4.5460    -0.8400 ca         1 TLS      -0.149000
     37 C37         -5.4190     4.8240     0.4960 ca         1 TLS      -0.129000
     38 O38         -4.1920     1.8200     3.2410 o          1 TLS      -0.710000
     39 O39         -2.2130     1.9350     2.2130 o          1 TLS      -0.710000
     40 H4           1.4200    -0.3820    -1.2860 ha         1 TLS       0.144000
     41 H6          -0.1960    -1.7940    -2.7480 h1         1 TLS       0.054200
     42 H6A         -1.6030    -2.7780    -2.4490 h1         1 TLS       0.054200
     43 H10         -2.0610    -5.2850     0.2030 hc         1 TLS       0.064700
     44 H10A        -2.5290    -4.1770    -1.0690 hc         1 TLS       0.064700
     45 H12          3.8730    -1.6330     2.0150 ha         1 TLS       0.104000
     46 H13          2.6630    -4.9120     2.3140 hc         1 TLS       0.041033
     47 H13A         3.4910    -3.6370     3.2100 hc         1 TLS       0.041033
     48 H13B         1.7700    -3.9310     3.4600 hc         1 TLS       0.041033
     49 H15         -0.8430    -5.2490    -2.6060 hc         1 TLS       0.045700
     50 H15A        -0.4020    -6.3530    -1.3210 hc         1 TLS       0.045700
     51 H16         -0.6320     0.5180    -2.8040 ha         1 TLS       0.098500
     52 H17         -2.9180    -1.9120    -0.1180 ha         1 TLS       0.098500
     53 H20         -3.1850    -6.1490    -2.5980 hc         1 TLS       0.031367
     54 H20A        -2.0180    -7.4400    -2.8730 hc         1 TLS       0.031367
     55 H20B        -2.7610    -7.2470    -1.2870 hc         1 TLS       0.031367
     56 H21         -1.8390     2.5050    -2.0250 ha         1 TLS       0.124000
     57 H22         -4.1230     0.0620     0.6460 ha         1 TLS       0.124000
     58 H24          4.6940     0.4580     3.0260 h1         1 TLS       0.056367
     59 H24A         3.8550     2.0130     2.9250 h1         1 TLS       0.056367
     60 H24B         2.9450     0.5180     2.7410 h1         1 TLS       0.056367
     61 H27          5.7050     3.2960     2.0120 ha         1 TLS       0.113000
     62 H28          5.1670     2.4620    -2.9020 ha         1 TLS       0.121000
     63 H30          6.7740     4.7720     0.3440 ha         1 TLS       0.103000
     64 H31          6.5180     4.3660    -2.0660 ha         1 TLS       0.104000
     65 H33         -4.2300     3.2050    -2.2170 ha         1 TLS       0.088000
     66 H34         -5.0910     4.2180     2.5200 ha         1 TLS       0.121000
     67 H36         -5.5800     5.1730    -1.6190 ha         1 TLS       0.086000
     68 H37         -6.0270     5.6760     0.7720 ha         1 TLS       0.087000
@<TRIPOS>BOND
     1     1     2 1   
     2     1     3 ar  
     3     1     4 ar  
     4     2     5 1   
     5     2     6 1   
     6     3     7 1   
     7     3     8 ar  
     8     4     9 ar  
     9     4    40 1   
    10     5     7 2   
    11     5    10 1   
    12     6    11 1   
    13     6    41 1   
    14     6    42 1   
    15     8    12 ar  
    16     8    13 1   
    17     9    12 ar  
    18     9    14 1   
    19    10    15 1   
    20    10    43 1   
    21    10    44 1   
    22    11    16 ar  
    23    11    17 ar  
    24    12    45 1   
    25    13    46 1   
    26    13    47 1   
    27    13    48 1   
    28    14    18 1   
    29    14    19 2   
    30    15    20 1   
    31    15    49 1   
    32    15    50 1   
    33    16    21 ar  
    34    16    51 1   
    35    17    22 ar  
    36    17    52 1   
    37    18    23 1   
    38    18    24 1   
    39    19    25 1   
    40    20    53 1   
    41    20    54 1   
    42    20    55 1   
    43    21    26 ar  
    44    21    56 1   
    45    22    26 ar  
    46    22    57 1   
    47    23    25 ar  
    48    23    27 ar  
    49    24    58 1   
    50    24    59 1   
    51    24    60 1   
    52    25    28 ar  
    53    26    29 1   
    54    27    30 ar  
    55    27    61 1   
    56    28    31 ar  
    57    28    62 1   
    58    29    32 ar  
    59    29    33 ar  
    60    30    31 ar  
    61    30    63 1   
    62    31    64 1   
    63    32    34 ar  
    64    32    35 1   
    65    33    36 ar  
    66    33    65 1   
    67    34    37 ar  
    68    34    66 1   
    69    35    38 1   
    70    35    39 1   
    71    36    37 ar  
    72    36    67 1   
    73    37    68 1   
@<TRIPOS>SUBSTRUCTURE
     1 TLS         1 TEMP              0 ****  ****    0 ROOT
