@<TRIPOS>MOLECULE
TLT
   33    34     1     0     0
SMALL
No Charge or Current Charge


@<TRIPOS>ATOM
      1 N           -1.6220     0.9040    -0.2190 na         1 TLT       0.087000
      2 C1          -2.4700    -0.0320    -0.8410 cc         1 TLT      -0.026300
      3 O1           0.9340     2.4300     0.3550 o          1 TLT      -0.580100
      4 C2          -0.2780     0.5320    -0.3960 cc         1 TLT      -0.323600
      5 O2          -4.7560    -1.8560     0.3970 o          1 TLT      -0.720500
      6 C3          -1.6430    -0.9380    -1.4410 cd         1 TLT      -0.236000
      7 O3          -4.7780     0.0650     1.3690 o          1 TLT      -0.720500
      8 C4          -0.3080    -0.5900    -1.1900 cd         1 TLT      -0.108000
      9 C5          -3.9820    -0.0030    -0.8640 c3         1 TLT      -0.189100
     10 C6           0.9640     1.2590    -0.0080 c          1 TLT       0.626300
     11 C7          -2.0670     2.0960     0.5260 c3         1 TLT       0.059900
     12 C8           2.2670     0.4870     0.0320 ca         1 TLT      -0.141600
     13 C9           3.4780     1.1560    -0.2460 ca         1 TLT      -0.068000
     14 C10          2.3160    -0.8760     0.4070 ca         1 TLT      -0.068000
     15 C11          4.7440    -0.8920     0.1510 ca         1 TLT      -0.075300
     16 C12          4.7040     0.4700    -0.1940 ca         1 TLT      -0.129500
     17 C13          3.5440    -1.5580     0.4590 ca         1 TLT      -0.129500
     18 C14         -4.5930    -0.6440     0.3910 c          1 TLT       0.724000
     19 C15          6.0710    -1.6310     0.2130 c3         1 TLT      -0.043800
     20 H3          -1.9700    -1.7850    -2.0360 ha         1 TLT       0.123000
     21 H4           0.5540    -1.1180    -1.5880 ha         1 TLT       0.113000
     22 H5          -4.2850     1.0470    -0.9350 hc         1 TLT       0.040700
     23 H5A         -4.2790    -0.5840    -1.7460 hc         1 TLT       0.040700
     24 H7          -1.5340     2.1480     1.4830 h1         1 TLT       0.055700
     25 H7A         -1.8450     2.9950    -0.0620 h1         1 TLT       0.055700
     26 H7B         -3.1420     2.0550     0.7270 h1         1 TLT       0.055700
     27 H9           3.4690     2.2110    -0.5140 ha         1 TLT       0.129500
     28 H10          1.4080    -1.4080     0.6800 ha         1 TLT       0.129500
     29 H12          5.6250     1.0020    -0.4210 ha         1 TLT       0.104500
     30 H13          3.5620    -2.6070     0.7470 ha         1 TLT       0.104500
     31 H15          6.5110    -1.5610     1.2150 hc         1 TLT       0.035700
     32 H15A         5.9480    -2.6950    -0.0260 hc         1 TLT       0.035700
     33 H15B         6.7940    -1.2160    -0.5000 hc         1 TLT       0.035700
@<TRIPOS>BOND
     1     1     2 1   
     2     1     4 1   
     3     1    11 1   
     4     2     6 2   
     5     2     9 1   
     6     3    10 2   
     7     4     8 2   
     8     4    10 1   
     9     5    18 1   
    10     6     8 1   
    11     6    20 1   
    12     7    18 1   
    13     8    21 1   
    14     9    18 1   
    15     9    22 1   
    16     9    23 1   
    17    10    12 1   
    18    11    24 1   
    19    11    25 1   
    20    11    26 1   
    21    12    13 ar  
    22    12    14 ar  
    23    13    16 ar  
    24    13    27 1   
    25    14    17 ar  
    26    14    28 1   
    27    15    16 ar  
    28    15    17 ar  
    29    15    19 1   
    30    16    29 1   
    31    17    30 1   
    32    19    31 1   
    33    19    32 1   
    34    19    33 1   
@<TRIPOS>SUBSTRUCTURE
     1 TLT         1 TEMP              0 ****  ****    0 ROOT
