@<TRIPOS>MOLECULE
TLT
   33    34     1     0     0
SMALL
bcc


@<TRIPOS>ATOM
      1 N           -1.5730     0.7880    -0.2720 na         1 TLT       0.014900
      2 C1          -2.3910    -0.0820    -0.9050 cc         1 TLT       0.024400
      3 O1           0.8270     2.3050     0.3740 o          1 TLT      -0.580100
      4 C2          -0.2610     0.3750    -0.4170 cc         1 TLT      -0.272900
      5 O2          -5.8040    -0.4530     0.3670 o          1 TLT      -0.825800
      6 C3          -1.6080    -1.0650    -1.4930 cd         1 TLT      -0.254000
      7 O3          -3.8240    -0.7410     1.3540 o          1 TLT      -0.825800
      8 C4          -0.2780    -0.7850    -1.1810 cd         1 TLT      -0.126000
      9 C5          -3.8700     0.0200    -0.9150 c3         1 TLT      -0.189100
     10 C6           0.8850     1.1290     0.0380 c          1 TLT       0.626300
     11 C7          -2.0260     1.9220     0.5080 c3         1 TLT       0.030600
     12 C8           2.2010     0.4270     0.0590 ca         1 TLT      -0.141600
     13 C9           3.3430     1.1290    -0.3250 ca         1 TLT      -0.086000
     14 C10          2.3440    -0.8800     0.5210 ca         1 TLT      -0.086000
     15 C11          4.7380    -0.7830     0.1760 ca         1 TLT      -0.075300
     16 C12          4.5890     0.5240    -0.2830 ca         1 TLT      -0.147500
     17 C13          3.5970    -1.4710     0.5840 ca         1 TLT      -0.147500
     18 C14         -4.5600    -0.4380     0.4000 c          1 TLT       0.934600
     19 C15          6.0900    -1.4270     0.2590 c3         1 TLT      -0.043800
     20 H3          -1.9830    -1.8900    -2.0790 ha         1 TLT       0.141000
     21 H4           0.5910    -1.3380    -1.5040 ha         1 TLT       0.131000
     22 H5          -4.1990     1.0390    -1.1440 hc         1 TLT       0.040700
     23 H5A         -4.2480    -0.5950    -1.7360 hc         1 TLT       0.040700
     24 H7          -1.6070     1.8910     1.5100 h1         1 TLT       0.055700
     25 H7A         -1.7450     2.8610     0.0380 h1         1 TLT       0.055700
     26 H7B         -3.1060     1.8850     0.5970 h1         1 TLT       0.055700
     27 H9           3.2560     2.1480    -0.6800 ha         1 TLT       0.147500
     28 H10          1.4780    -1.4350     0.8560 ha         1 TLT       0.147500
     29 H12          5.4610     1.0790    -0.6100 ha         1 TLT       0.122500
     30 H13          3.6870    -2.4840     0.9570 ha         1 TLT       0.122500
     31 H15          6.4780    -1.3820     1.2790 hc         1 TLT       0.035700
     32 H15A         6.0500    -2.4790    -0.0230 hc         1 TLT       0.035700
     33 H15B         6.8120    -0.9290    -0.3880 hc         1 TLT       0.035700
@<TRIPOS>BOND
     1     1     2 1   
     2     1     4 1   
     3     1    11 1   
     4     2     6 2   
     5     2     9 1   
     6     3    10 2   
     7     4     8 2   
     8     4    10 1   
     9     5    18 1   
    10     6     8 1   
    11     6    20 1   
    12     7    18 1   
    13     8    21 1   
    14     9    18 1   
    15     9    22 1   
    16     9    23 1   
    17    10    12 1   
    18    11    24 1   
    19    11    25 1   
    20    11    26 1   
    21    12    13 ar  
    22    12    14 ar  
    23    13    16 ar  
    24    13    27 1   
    25    14    17 ar  
    26    14    28 1   
    27    15    16 ar  
    28    15    17 ar  
    29    15    19 1   
    30    16    29 1   
    31    17    30 1   
    32    19    31 1   
    33    19    32 1   
    34    19    33 1   
@<TRIPOS>SUBSTRUCTURE
     1 TLT         1 TEMP              0 ****  ****    0 ROOT
