@<TRIPOS>MOLECULE
TLV
   34    35     1     0     0
SMALL
No Charge or Current Charge


@<TRIPOS>ATOM
      1 O9           7.1320    -0.8420     0.4880 o          1 TLV      -0.725500
      2 C9           6.3700    -0.8510    -0.4700 c          1 TLV       0.694000
      3 O10          6.7420    -1.0500    -1.6180 o          1 TLV      -0.725500
      4 C8           4.8140    -0.7380    -0.1950 c3         1 TLV       0.014500
      5 N8           4.2530    -1.6760     0.8480 n8         1 TLV      -1.004200
      6 C7           4.4350     0.7330     0.1210 c3         1 TLV      -0.027100
      7 C1           2.9300     0.9800     0.1800 ca         1 TLV      -0.002300
      8 C2           2.1620     0.9560    -1.0010 ca         1 TLV      -0.092000
      9 C3           0.7770     1.1870    -0.9560 ca         1 TLV       0.114500
     10 Cl2         -0.1440     1.1550    -2.4610 cl         1 TLV      -0.197000
     11 C6           2.2960     1.2480     1.4090 ca         1 TLV      -0.092000
     12 C5           0.9110     1.4800     1.4600 ca         1 TLV       0.114500
     13 Cl4          0.1480     1.8000     3.0180 cl         1 TLV      -0.197000
     14 C4           0.1440     1.4450     0.2790 ca         1 TLV       0.054100
     15 O4          -1.2140     1.6730     0.3370 os         1 TLV      -0.226200
     16 C15         -2.1450     0.6680     0.1820 ca         1 TLV       0.129100
     17 C13         -3.4780     1.0260    -0.0720 ca         1 TLV      -0.108500
     18 C12         -4.4580     0.0340    -0.2370 ca         1 TLV       0.083500
     19 Cl3         -6.1230     0.5190    -0.5610 cl         1 TLV      -0.192500
     20 C14         -1.7920    -0.6930     0.2820 ca         1 TLV      -0.108500
     21 C10         -2.7700    -1.6890     0.1170 ca         1 TLV       0.083500
     22 Cl1         -2.2890    -3.3820     0.2460 cl         1 TLV      -0.192500
     23 C11         -4.1120    -1.3320    -0.1460 ca         1 TLV       0.118100
     24 O44         -5.0720    -2.3020    -0.3080 oh         1 TLV      -0.515100
     25 H2           4.3220    -0.9990    -1.1420 h1         1 TLV       0.042700
     26 H3           4.4600    -2.6450     0.5740 hn         1 TLV       0.387500
     27 H4           4.7990    -1.5610     1.7120 hn         1 TLV       0.387500
     28 H6           4.9130     1.0340     1.0620 hc         1 TLV       0.059700
     29 H7           4.8720     1.3780    -0.6520 hc         1 TLV       0.059700
     30 H8           2.6400     0.7580    -1.9570 ha         1 TLV       0.143500
     31 H9           2.8750     1.2710     2.3290 ha         1 TLV       0.143500
     32 H10         -3.7500     2.0750    -0.1450 ha         1 TLV       0.153000
     33 H11         -0.7680    -0.9900     0.4890 ha         1 TLV       0.153000
     34 H12         -5.9320    -1.8580    -0.4790 ho         1 TLV       0.473000
@<TRIPOS>BOND
     1     1     2 1   
     2     2     3 1   
     3     2     4 1   
     4     4     5 1   
     5     4     6 1   
     6     4    25 1   
     7     5    26 1   
     8     5    27 1   
     9     6     7 1   
    10     6    28 1   
    11     6    29 1   
    12     7     8 ar  
    13     7    11 ar  
    14     8     9 ar  
    15     8    30 1   
    16     9    10 1   
    17     9    14 ar  
    18    11    12 ar  
    19    11    31 1   
    20    12    13 1   
    21    12    14 ar  
    22    14    15 1   
    23    15    16 1   
    24    16    17 ar  
    25    16    20 ar  
    26    17    18 ar  
    27    17    32 1   
    28    18    19 1   
    29    18    23 ar  
    30    20    21 ar  
    31    20    33 1   
    32    21    22 1   
    33    21    23 ar  
    34    23    24 1   
    35    24    34 1   
@<TRIPOS>SUBSTRUCTURE
     1 TLV         1 TEMP              0 ****  ****    0 ROOT
