@<TRIPOS>MOLECULE
TLV
   34    35     1     0     0
SMALL
abcg2


@<TRIPOS>ATOM
      1 O9           6.9320    -1.5160     0.5810 o          1 TLV      -0.725500
      2 C9           6.2460    -0.9630    -0.2990 c          1 TLV       0.694000
      3 O10          6.6510    -0.5230    -1.3950 o          1 TLV      -0.725500
      4 C8           4.7280    -0.7890    -0.0210 c3         1 TLV       0.014500
      5 N8           4.2250    -1.4380     1.1750 n8         1 TLV      -1.004200
      6 C7           4.3930     0.7110     0.0210 c3         1 TLV      -0.027100
      7 C1           2.9160     0.9690     0.0500 ca         1 TLV      -0.002300
      8 C2           2.2170     1.1270    -1.1420 ca         1 TLV      -0.092000
      9 C3           0.8490     1.3420    -1.1280 ca         1 TLV       0.114500
     10 CL2         -0.0200     1.5340    -2.6050 cl         1 TLV      -0.197000
     11 C6           2.2190     1.0230     1.2530 ca         1 TLV      -0.092000
     12 C5           0.8530     1.2450     1.2560 ca         1 TLV       0.114500
     13 CL4         -0.0150     1.3160     2.7440 cl         1 TLV      -0.197000
     14 C4           0.1510     1.4180     0.0690 ca         1 TLV       0.054100
     15 O4          -1.1770     1.7010     0.0820 os         1 TLV      -0.226200
     16 C15         -2.0750     0.6720     0.0390 ca         1 TLV       0.129100
     17 C13         -3.4130     1.0330     0.0380 ca         1 TLV      -0.108500
     18 C12         -4.3750     0.0410    -0.0040 ca         1 TLV       0.083500
     19 CL3         -6.0480     0.4800    -0.0070 cl         1 TLV      -0.192500
     20 C14         -1.7060    -0.6630    -0.0020 ca         1 TLV      -0.108500
     21 C10         -2.6950    -1.6320    -0.0430 ca         1 TLV       0.083500
     22 CL1         -2.2450    -3.2960    -0.0930 cl         1 TLV      -0.192500
     23 C11         -4.0500    -1.3150    -0.0460 ca         1 TLV       0.118100
     24 O44         -4.9450    -2.3070    -0.0870 oh         1 TLV      -0.515100
     25 H2           4.1940    -1.2150    -0.8790 h1         1 TLV       0.042700
     26 H3           4.3510    -2.4380     1.0780 hn         1 TLV       0.387500
     27 H4           4.8260    -1.1820     1.9500 hn         1 TLV       0.387500
     28 H6           4.8630     1.1590     0.9020 hc         1 TLV       0.059700
     29 H7           4.8280     1.1930    -0.8540 hc         1 TLV       0.059700
     30 H8           2.7420     1.0830    -2.0880 ha         1 TLV       0.143500
     31 H9           2.7430     0.8970     2.1900 ha         1 TLV       0.143500
     32 H10         -3.7020     2.0750     0.0710 ha         1 TLV       0.153000
     33 H11         -0.6670    -0.9670    -0.0020 ha         1 TLV       0.153000
     34 H12         -5.8480    -1.9620    -0.0730 ho         1 TLV       0.473000
@<TRIPOS>BOND
     1     1     2 1   
     2     2     3 1   
     3     2     4 1   
     4     4     5 1   
     5     4     6 1   
     6     4    25 1   
     7     5    26 1   
     8     5    27 1   
     9     6     7 1   
    10     6    28 1   
    11     6    29 1   
    12     7     8 ar  
    13     7    11 ar  
    14     8     9 ar  
    15     8    30 1   
    16     9    10 1   
    17     9    14 ar  
    18    11    12 ar  
    19    11    31 1   
    20    12    13 1   
    21    12    14 ar  
    22    14    15 1   
    23    15    16 1   
    24    16    17 ar  
    25    16    20 ar  
    26    17    18 ar  
    27    17    32 1   
    28    18    19 1   
    29    18    23 ar  
    30    20    21 ar  
    31    20    33 1   
    32    21    22 1   
    33    21    23 ar  
    34    23    24 1   
    35    24    34 1   
@<TRIPOS>SUBSTRUCTURE
     1 TLV         1 TEMP              0 ****  ****    0 ROOT
