@<TRIPOS>MOLECULE
TLW
   28    28     1     0     0
SMALL
No Charge or Current Charge


@<TRIPOS>ATOM
      1 C1         108.2080   135.8880   264.6910 c          1 TLW       0.734000
      2 C2         109.7540   135.6370   264.5240 c6         1 TLW       0.028300
      3 C3         110.4710   136.8910   263.9300 c6         1 TLW      -0.084400
      4 C4         111.9810   136.9800   264.3010 c6         1 TLW       0.170300
      5 C5         112.5810   135.5530   264.5030 c6         1 TLW       0.109300
      6 C6         111.7730   134.7130   265.5690 c6         1 TLW       0.147300
      7 C7         112.4230   134.6620   266.9990 c3         1 TLW       0.170300
      8 C8         111.6360   133.7870   268.0100 c3         1 TLW       0.125600
      9 O11        107.4970   135.3160   263.8740 o          1 TLW      -0.715000
     10 O12        107.7900   136.0720   265.8290 o          1 TLW      -0.715000
     11 O4         112.1860   137.7950   265.4650 oh         1 TLW      -0.647000
     12 O5         113.9950   135.5920   264.7890 oh         1 TLW      -0.763000
     13 O6         110.4290   135.2340   265.7470 os         1 TLW      -0.409000
     14 O7         113.7720   134.1530   266.9790 oh         1 TLW      -0.755000
     15 O8         112.4240   133.6040   269.2080 oh         1 TLW      -0.695000
     16 H1         109.8640   134.8090   263.8070 h1         1 TLW       0.010700
     17 H31        109.9580   137.8080   264.2510 hc         1 TLW       0.057700
     18 H32        110.3680   136.8630   262.8370 hc         1 TLW       0.057700
     19 H4         112.5010   137.4510   263.4540 h1         1 TLW       0.015700
     20 H5         112.4450   135.0330   263.5430 h1         1 TLW       0.038700
     21 H6         111.6880   133.6810   265.1970 h1         1 TLW       0.027700
     22 H7         112.4270   135.6890   267.3900 h1         1 TLW       0.060700
     23 H81        110.6810   134.2790   268.2440 h1         1 TLW       0.056700
     24 H82        111.4050   132.8170   267.5470 h1         1 TLW       0.056700
     25 H3         113.1320   137.6680   265.6970 ho         1 TLW       0.431000
     26 H8         114.0930   135.0240   265.6130 ho         1 TLW       0.530000
     27 HO7        113.8590   133.7610   267.8880 ho         1 TLW       0.516000
     28 HO8        111.8550   133.1340   269.8610 ho         1 TLW       0.441000
@<TRIPOS>BOND
     1     1     2 1   
     2     1     9 1   
     3     1    10 1   
     4     2     3 1   
     5     2    13 1   
     6     2    16 1   
     7     3     4 1   
     8     3    17 1   
     9     3    18 1   
    10     4     5 1   
    11     4    11 1   
    12     4    19 1   
    13     5     6 1   
    14     5    12 1   
    15     5    20 1   
    16     6     7 1   
    17     6    13 1   
    18     6    21 1   
    19     7     8 1   
    20     7    14 1   
    21     7    22 1   
    22     8    15 1   
    23     8    23 1   
    24     8    24 1   
    25    11    25 1   
    26    12    26 1   
    27    14    27 1   
    28    15    28 1   
@<TRIPOS>SUBSTRUCTURE
     1 TLW         1 TEMP              0 ****  ****    0 ROOT
