@<TRIPOS>MOLECULE
TLW
   28    28     1     0     0
SMALL
abcg2


@<TRIPOS>ATOM
      1 C1         108.3060   135.7370   264.7920 c          1 TLW       0.734000
      2 C2         109.8180   135.5370   264.5780 c6         1 TLW       0.028300
      3 C3         110.4700   136.7760   263.9450 c6         1 TLW      -0.084400
      4 C4         111.9320   136.9160   264.3560 c6         1 TLW       0.170300
      5 C5         112.5600   135.5410   264.5470 c6         1 TLW       0.109300
      6 C6         111.7600   134.7090   265.5980 c6         1 TLW       0.147300
      7 C7         112.4240   134.6290   266.9710 c3         1 TLW       0.170300
      8 C8         111.5430   133.9360   267.9970 c3         1 TLW       0.125600
      9 O11        107.6830   136.0130   263.7470 o          1 TLW      -0.715000
     10 O12        107.8500   135.6130   265.9400 o          1 TLW      -0.715000
     11 O4         112.0160   137.6890   265.5360 oh         1 TLW      -0.647000
     12 O5         113.9200   135.7330   264.8690 oh         1 TLW      -0.763000
     13 O6         110.4680   135.2230   265.7910 os         1 TLW      -0.409000
     14 O7         113.6230   133.8890   266.7780 oh         1 TLW      -0.755000
     15 O8         112.2950   133.8460   269.1900 oh         1 TLW      -0.695000
     16 H1         109.9410   134.6900   263.8830 h1         1 TLW       0.010700
     17 H31        109.9460   137.6920   264.2310 hc         1 TLW       0.057700
     18 H32        110.4030   136.7080   262.8590 hc         1 TLW       0.057700
     19 H4         112.4780   137.4190   263.5440 h1         1 TLW       0.015700
     20 H5         112.4780   135.0160   263.5840 h1         1 TLW       0.038700
     21 H6         111.6850   133.6750   265.2180 h1         1 TLW       0.027700
     22 H7         112.6510   135.6420   267.3340 h1         1 TLW       0.060700
     23 H81        110.6220   134.5070   268.1450 h1         1 TLW       0.056700
     24 H82        111.2630   132.9440   267.6190 h1         1 TLW       0.056700
     25 H3         112.9400   137.6850   265.8100 ho         1 TLW       0.431000
     26 H8         114.1990   135.0170   265.4620 ho         1 TLW       0.530000
     27 HO7        114.0890   133.8400   267.6210 ho         1 TLW       0.516000
     28 HO8        111.8300   133.2690   269.8020 ho         1 TLW       0.441000
@<TRIPOS>BOND
     1     1     2 1   
     2     1     9 1   
     3     1    10 1   
     4     2     3 1   
     5     2    13 1   
     6     2    16 1   
     7     3     4 1   
     8     3    17 1   
     9     3    18 1   
    10     4     5 1   
    11     4    11 1   
    12     4    19 1   
    13     5     6 1   
    14     5    12 1   
    15     5    20 1   
    16     6     7 1   
    17     6    13 1   
    18     6    21 1   
    19     7     8 1   
    20     7    14 1   
    21     7    22 1   
    22     8    15 1   
    23     8    23 1   
    24     8    24 1   
    25    11    25 1   
    26    12    26 1   
    27    14    27 1   
    28    15    28 1   
@<TRIPOS>SUBSTRUCTURE
     1 TLW         1 TEMP              0 ****  ****    0 ROOT
