@<TRIPOS>MOLECULE
TLX
   43    44     1     0     0
SMALL
bcc


@<TRIPOS>ATOM
      1 N1         102.9380    99.2480    76.5570 n3         1 TLX      -0.770600
      2 C2         103.9740    99.1560    77.5750 c6         1 TLX       0.218800
      3 C3         104.4110    97.7180    77.8290 c6         1 TLX      -0.112400
      4 C4         103.2090    96.8590    78.2390 c6         1 TLX       0.185800
      5 N5         101.9840    97.4670    77.7660 n3         1 TLX      -0.745600
      6 C6         100.8250    96.5970    77.7640 c5         1 TLX       0.179800
      7 C7          99.8730    97.1890    76.7070 c5         1 TLX      -0.084400
      8 C8         100.6300    98.3930    76.1350 c5         1 TLX      -0.085400
      9 C9         102.0870    98.0770    76.4560 c5         1 TLX       0.454700
     10 C1         103.2930    99.9120    75.3270 c3         1 TLX       0.214800
     11 C10        104.4620    99.3760    74.4800 c3         1 TLX       0.119500
     12 C11        104.7190   100.3550    73.3180 c3         1 TLX      -0.111400
     13 C12        106.1610   100.4480    72.8120 c3         1 TLX      -0.060700
     14 C5         106.7310    99.1220    72.3170 c3         1 TLX      -0.090100
     15 CM         106.2530   101.5020    71.7120 c3         1 TLX      -0.090100
     16 N          104.2030    98.0010    74.0700 n8         1 TLX      -0.886800
     17 H21        104.8360    99.7490    77.2630 h1         1 TLX       0.039700
     18 H22        103.6310    99.5980    78.5190 h1         1 TLX       0.039700
     19 H31        104.8670    97.3220    76.9190 hc         1 TLX       0.048200
     20 H32        105.1800    97.6880    78.6030 hc         1 TLX       0.048200
     21 H41        103.3320    95.8350    77.8500 h1         1 TLX       0.028200
     22 H42        103.1560    96.7700    79.3280 h1         1 TLX       0.028200
     23 H61        101.0950    95.5650    77.4920 h1         1 TLX       0.032200
     24 H62        100.3760    96.5490    78.7600 h1         1 TLX       0.032200
     25 H71         99.6700    96.4520    75.9300 hc         1 TLX       0.042700
     26 H72         98.9110    97.4780    77.1290 hc         1 TLX       0.042700
     27 H81        100.4500    98.5380    75.0700 hc         1 TLX       0.053200
     28 H82        100.3530    99.3140    76.6530 hc         1 TLX       0.053200
     29 H9         102.4710    97.3570    75.7090 h2         1 TLX       0.027700
     30 H1'1       102.4000    99.9540    74.6920 h1         1 TLX       0.042700
     31 H1'2       103.5270   100.9560    75.5650 h1         1 TLX       0.042700
     32 H2         105.3590    99.3600    75.1120 h1         1 TLX       0.060700
     33 H3'1       104.0550   100.0900    72.4860 hc         1 TLX       0.041200
     34 H3'2       104.4230   101.3640    73.6260 hc         1 TLX       0.041200
     35 H4         106.7810   100.7850    73.6520 hc         1 TLX       0.045700
     36 H5'1       107.7160    99.2680    71.8690 hc         1 TLX       0.033200
     37 H5'2       106.8610    98.3980    73.1230 hc         1 TLX       0.033200
     38 H5'3       106.0880    98.6740    71.5560 hc         1 TLX       0.033200
     39 HM'1       107.2820   101.6380    71.3750 hc         1 TLX       0.033200
     40 HM'2       105.6580   101.2090    70.8430 hc         1 TLX       0.033200
     41 HM'3       105.8830   102.4700    72.0540 hc         1 TLX       0.033200
     42 HN'1       104.9650    97.6540    73.5040 hn         1 TLX       0.336800
     43 HN'2       103.3850    97.9800    73.4710 hn         1 TLX       0.336800
@<TRIPOS>BOND
     1     1     2 1   
     2     1     9 1   
     3     1    10 1   
     4     2     3 1   
     5     2    17 1   
     6     2    18 1   
     7     3     4 1   
     8     3    19 1   
     9     3    20 1   
    10     4     5 1   
    11     4    21 1   
    12     4    22 1   
    13     5     6 1   
    14     5     9 1   
    15     6     7 1   
    16     6    23 1   
    17     6    24 1   
    18     7     8 1   
    19     7    25 1   
    20     7    26 1   
    21     8     9 1   
    22     8    27 1   
    23     8    28 1   
    24     9    29 1   
    25    10    11 1   
    26    10    30 1   
    27    10    31 1   
    28    11    12 1   
    29    11    16 1   
    30    11    32 1   
    31    12    13 1   
    32    12    33 1   
    33    12    34 1   
    34    13    14 1   
    35    13    15 1   
    36    13    35 1   
    37    14    36 1   
    38    14    37 1   
    39    14    38 1   
    40    15    39 1   
    41    15    40 1   
    42    15    41 1   
    43    16    42 1   
    44    16    43 1   
@<TRIPOS>SUBSTRUCTURE
     1 TLX         1 TEMP              0 ****  ****    0 ROOT
