@<TRIPOS>MOLECULE
TLX
   43    44     1     0     0
SMALL
No Charge or Current Charge


@<TRIPOS>ATOM
      1 N1         102.7730    99.2570    76.5560 n3         1 TLX      -0.770600
      2 C2         103.8180    99.4040    77.6180 c6         1 TLX       0.218800
      3 C3         104.4180    98.0400    78.0340 c6         1 TLX      -0.112400
      4 C4         103.3010    97.0290    78.4020 c6         1 TLX       0.185800
      5 N5         102.0160    97.4160    77.7770 n3         1 TLX      -0.745600
      6 C6         101.0020    96.3560    77.6540 c5         1 TLX       0.179800
      7 C7          99.8830    97.1180    76.8940 c5         1 TLX      -0.084400
      8 C8         100.6750    98.0620    75.9300 c5         1 TLX      -0.085400
      9 C9         102.1520    97.9100    76.4080 c5         1 TLX       0.454700
     10 C1         103.0880    99.9780    75.2870 c3         1 TLX       0.214800
     11 C10        104.2670    99.4010    74.4160 c3         1 TLX       0.119500
     12 C11        104.7790   100.4460    73.3840 c3         1 TLX      -0.111400
     13 C12        106.2310   100.2520    72.8450 c3         1 TLX      -0.060700
     14 C5         106.4570    98.9390    72.0570 c3         1 TLX      -0.090100
     15 CM         106.6570   101.4690    71.9910 c3         1 TLX      -0.090100
     16 N          103.8950    98.1430    73.7150 n8         1 TLX      -0.997200
     17 H21        104.6280   100.0770    77.3000 h1         1 TLX       0.039700
     18 H22        103.3640    99.8630    78.5080 h1         1 TLX       0.039700
     19 H31        105.0060    97.6400    77.1970 hc         1 TLX       0.048200
     20 H32        105.1130    98.1640    78.8740 hc         1 TLX       0.048200
     21 H41        103.6130    96.0250    78.0770 h1         1 TLX       0.028200
     22 H42        103.1810    96.9950    79.4950 h1         1 TLX       0.028200
     23 H61        101.3770    95.5060    77.0660 h1         1 TLX       0.032200
     24 H62        100.6610    95.9810    78.6280 h1         1 TLX       0.032200
     25 H71         99.2100    96.4370    76.3600 hc         1 TLX       0.042700
     26 H72         99.2700    97.7010    77.5900 hc         1 TLX       0.042700
     27 H81        100.5730    97.7590    74.8820 hc         1 TLX       0.053200
     28 H82        100.3060    99.0910    76.0070 hc         1 TLX       0.053200
     29 H9         102.7290    97.2110    75.7890 h2         1 TLX       0.027700
     30 H1'1       102.1920   100.0380    74.6550 h1         1 TLX       0.042700
     31 H1'2       103.3380   101.0160    75.5460 h1         1 TLX       0.042700
     32 H2         105.1020    99.1790    75.0970 h1         1 TLX       0.060700
     33 H3'1       104.0780   100.5030    72.5410 hc         1 TLX       0.041200
     34 H3'2       104.7460   101.4330    73.8610 hc         1 TLX       0.041200
     35 H4         106.9020   100.2260    73.7130 hc         1 TLX       0.045700
     36 H5'1       107.4510    98.9340    71.5920 hc         1 TLX       0.033200
     37 H5'2       106.4130    98.0660    72.7180 hc         1 TLX       0.033200
     38 H5'3       105.7110    98.8230    71.2620 hc         1 TLX       0.033200
     39 HM'1       107.7010   101.3740    71.6700 hc         1 TLX       0.033200
     40 HM'2       106.0290   101.5560    71.0950 hc         1 TLX       0.033200
     41 HM'3       106.5670   102.3990    72.5650 hc         1 TLX       0.033200
     42 HN'1       104.6650    97.8800    73.0940 hn         1 TLX       0.392000
     43 HN'2       103.1240    98.3390    73.0690 hn         1 TLX       0.392000
@<TRIPOS>BOND
     1     1     2 1   
     2     1     9 1   
     3     1    10 1   
     4     2     3 1   
     5     2    17 1   
     6     2    18 1   
     7     3     4 1   
     8     3    19 1   
     9     3    20 1   
    10     4     5 1   
    11     4    21 1   
    12     4    22 1   
    13     5     6 1   
    14     5     9 1   
    15     6     7 1   
    16     6    23 1   
    17     6    24 1   
    18     7     8 1   
    19     7    25 1   
    20     7    26 1   
    21     8     9 1   
    22     8    27 1   
    23     8    28 1   
    24     9    29 1   
    25    10    11 1   
    26    10    30 1   
    27    10    31 1   
    28    11    12 1   
    29    11    16 1   
    30    11    32 1   
    31    12    13 1   
    32    12    33 1   
    33    12    34 1   
    34    13    14 1   
    35    13    15 1   
    36    13    35 1   
    37    14    36 1   
    38    14    37 1   
    39    14    38 1   
    40    15    39 1   
    41    15    40 1   
    42    15    41 1   
    43    16    42 1   
    44    16    43 1   
@<TRIPOS>SUBSTRUCTURE
     1 TLX         1 TEMP              0 ****  ****    0 ROOT
