@<TRIPOS>MOLECULE
TLY
   28    27     1     0     0
SMALL
bcc


@<TRIPOS>ATOM
      1 C           13.7200    -3.1140    -6.9860 c          1 TLY       0.924600
      2 N           14.4080    -5.3330    -6.0930 n8         1 TLY      -0.860800
      3 O           13.0480    -2.8980    -5.9590 o          1 TLY      -0.829300
      4 CA          14.0820    -4.5850    -7.3040 c3         1 TLY       0.020500
      5 CB          12.9040    -5.2810    -7.9880 c3         1 TLY      -0.046400
      6 CD          11.4210    -5.5240   -10.0150 c3         1 TLY      -0.095400
      7 CE          10.9780    -4.9100   -11.3330 c3         1 TLY       0.077000
      8 CG          12.5040    -4.6960    -9.3360 c3         1 TLY      -0.069400
      9 CX           9.3020    -5.4040   -13.0600 cs         1 TLY       0.448400
     10 SX           9.5450    -3.9730   -13.8840 s          1 TLY      -0.626400
     11 CY           8.3040    -6.4130   -13.5490 c3         1 TLY      -0.147100
     12 NZ           9.9620    -5.7260   -11.9660 ns         1 TLY      -0.441900
     13 OXT         14.1100    -2.2650    -7.8150 o          1 TLY      -0.829300
     14 H           14.7700    -6.2410    -6.3600 hn         1 TLY       0.307300
     15 H2          15.1650    -4.8750    -5.6000 hn         1 TLY       0.307300
     16 HA          14.9190    -4.5690    -8.0190 h1         1 TLY       0.000700
     17 HB          13.1630    -6.3380    -8.1300 hc         1 TLY       0.021700
     18 HBA         12.0450    -5.2670    -7.3100 hc         1 TLY       0.021700
     19 HD          10.5570    -5.6150    -9.3500 hc         1 TLY       0.032200
     20 HDA         11.7920    -6.5390   -10.1900 hc         1 TLY       0.032200
     21 HE          10.5760    -3.9060   -11.1730 h1         1 TLY       0.078200
     22 HEA         11.8280    -4.8000   -12.0130 h1         1 TLY       0.078200
     23 HG          12.1480    -3.6700    -9.2110 hc         1 TLY       0.059200
     24 HGA         13.3800    -4.6380    -9.9900 hc         1 TLY       0.059200
     25 HY           7.3260    -5.9450   -13.6450 hc         1 TLY       0.057700
     26 HYA          8.5940    -6.7610   -14.5390 hc         1 TLY       0.057700
     27 HYB          8.2130    -7.2780   -12.8920 hc         1 TLY       0.057700
     28 HNZ          9.7580    -6.6180   -11.5360 hn         1 TLY       0.305500
@<TRIPOS>BOND
     1     1     3 1   
     2     1     4 1   
     3     1    13 1   
     4     2     4 1   
     5     2    14 1   
     6     2    15 1   
     7     4     5 1   
     8     4    16 1   
     9     5     8 1   
    10     5    17 1   
    11     5    18 1   
    12     6     7 1   
    13     6     8 1   
    14     6    19 1   
    15     6    20 1   
    16     7    12 1   
    17     7    21 1   
    18     7    22 1   
    19     8    23 1   
    20     8    24 1   
    21     9    10 2   
    22     9    11 1   
    23     9    12 1   
    24    11    25 1   
    25    11    26 1   
    26    11    27 1   
    27    12    28 1   
@<TRIPOS>SUBSTRUCTURE
     1 TLY         1 TEMP              0 ****  ****    0 ROOT
