@<TRIPOS>MOLECULE
TLY
   28    27     1     0     0
SMALL
No Charge or Current Charge


@<TRIPOS>ATOM
      1 C           13.6460    -3.0730    -6.8800 c          1 TLY       0.924600
      2 N           14.6680    -5.3980    -6.1420 n8         1 TLY      -0.860800
      3 O           12.6170    -2.8980    -6.2330 o          1 TLY      -0.829300
      4 CA          14.0950    -4.5580    -7.2570 c3         1 TLY       0.020500
      5 CB          12.9710    -5.3500    -7.9810 c3         1 TLY      -0.046400
      6 CD          11.3950    -5.5230   -10.0140 c3         1 TLY      -0.095400
      7 CE          10.8990    -4.8640   -11.3160 c3         1 TLY       0.077000
      8 CG          12.4700    -4.6860    -9.2860 c3         1 TLY      -0.069400
      9 CX           9.2590    -5.3860   -13.1610 cs         1 TLY       0.448400
     10 SX           9.5690    -4.0020   -14.0530 s          1 TLY      -0.626400
     11 CY           8.2530    -6.4310   -13.5910 c3         1 TLY      -0.147100
     12 NZ           9.8830    -5.6810   -11.9800 ns         1 TLY      -0.441900
     13 OXT         14.3790    -2.1430    -7.2040 o          1 TLY      -0.829300
     14 H           14.9970    -6.2900    -6.5240 hn         1 TLY       0.307300
     15 H2          15.5110    -4.9440    -5.7750 hn         1 TLY       0.307300
     16 HA          14.9140    -4.4540    -7.9820 h1         1 TLY       0.000700
     17 HB          13.3420    -6.3550    -8.2230 hc         1 TLY       0.021700
     18 HBA         12.1220    -5.4850    -7.2980 hc         1 TLY       0.021700
     19 HD          10.5420    -5.6780    -9.3420 hc         1 TLY       0.032200
     20 HDA         11.8050    -6.5140   -10.2480 hc         1 TLY       0.032200
     21 HE          10.4690    -3.8780   -11.0900 h1         1 TLY       0.078200
     22 HEA         11.7450    -4.7200   -12.0020 h1         1 TLY       0.078200
     23 HG          12.0560    -3.6960    -9.0610 hc         1 TLY       0.059200
     24 HGA         13.3230    -4.5310    -9.9600 hc         1 TLY       0.059200
     25 HY           7.7800    -6.1510   -14.5400 hc         1 TLY       0.057700
     26 HYA          8.7390    -7.4040   -13.7290 hc         1 TLY       0.057700
     27 HYB          7.4630    -6.5420   -12.8400 hc         1 TLY       0.057700
     28 HNZ          9.6110    -6.5490   -11.5310 hn         1 TLY       0.305500
@<TRIPOS>BOND
     1     1     3 1   
     2     1     4 1   
     3     1    13 1   
     4     2     4 1   
     5     2    14 1   
     6     2    15 1   
     7     4     5 1   
     8     4    16 1   
     9     5     8 1   
    10     5    17 1   
    11     5    18 1   
    12     6     7 1   
    13     6     8 1   
    14     6    19 1   
    15     6    20 1   
    16     7    12 1   
    17     7    21 1   
    18     7    22 1   
    19     8    23 1   
    20     8    24 1   
    21     9    10 2   
    22     9    11 1   
    23     9    12 1   
    24    11    25 1   
    25    11    26 1   
    26    11    27 1   
    27    12    28 1   
@<TRIPOS>SUBSTRUCTURE
     1 TLY         1 TEMP              0 ****  ****    0 ROOT
