@<TRIPOS>MOLECULE
TLZ
   26    25     1     0     0
SMALL
abcg2


@<TRIPOS>ATOM
      1 O6          -4.3930     0.0640     0.1870 oh         1 TLZ      -0.719000
      2 C6          -3.1930     0.6830    -0.2170 c3         1 TLZ       0.143100
      3 C5          -2.0300    -0.2050     0.1900 c3         1 TLZ       0.144800
      4 O5          -2.2160    -1.4540    -0.4310 oh         1 TLZ      -0.720500
      5 C4          -0.6820     0.4350    -0.2010 c3         1 TLZ       0.118800
      6 O4          -0.5950     1.7680     0.2490 oh         1 TLZ      -0.716000
      7 C3           0.5240    -0.3700     0.3300 c3         1 TLZ       0.118800
      8 O3           0.4670    -1.7310    -0.0660 oh         1 TLZ      -0.716000
      9 C2           1.8600     0.2480    -0.0760 c3         1 TLZ       0.144800
     10 O2           1.9740     0.1020    -1.4760 oh         1 TLZ      -0.720500
     11 C1           3.0220    -0.4190     0.6430 c3         1 TLZ       0.143100
     12 O1           4.2110     0.1850     0.1750 oh         1 TLZ      -0.719000
     13 H1          -5.1130     0.6760     0.0090 ho         1 TLZ       0.506000
     14 H2          -3.1620     0.8320    -1.3070 h1         1 TLZ       0.033700
     15 H3          -3.0760     1.6670     0.2460 h1         1 TLZ       0.033700
     16 H4          -2.0500    -0.3070     1.2900 h1         1 TLZ       0.050200
     17 H5          -1.3990    -1.9550    -0.3010 ho         1 TLZ       0.525000
     18 H6          -0.6320     0.4810    -1.2950 h1         1 TLZ       0.084700
     19 H7          -0.6750     1.7790     1.2100 ho         1 TLZ       0.513500
     20 H8           0.4660    -0.3690     1.4250 h1         1 TLZ       0.084700
     21 H9           0.7820    -1.7840    -0.9790 ho         1 TLZ       0.513500
     22 H10          1.8500     1.3080     0.2080 h1         1 TLZ       0.050200
     23 H11          2.8940     0.2600    -1.7160 ho         1 TLZ       0.525000
     24 H12          2.8980    -0.2840     1.7250 h1         1 TLZ       0.033700
     25 H13          3.0200    -1.4960     0.4450 h1         1 TLZ       0.033700
     26 H14          4.9440    -0.4120     0.3430 ho         1 TLZ       0.506000
@<TRIPOS>BOND
     1     1     2 1   
     2     1    13 1   
     3     2     3 1   
     4     2    14 1   
     5     2    15 1   
     6     3     4 1   
     7     3     5 1   
     8     3    16 1   
     9     4    17 1   
    10     5     6 1   
    11     5     7 1   
    12     5    18 1   
    13     6    19 1   
    14     7     8 1   
    15     7     9 1   
    16     7    20 1   
    17     8    21 1   
    18     9    10 1   
    19     9    11 1   
    20     9    22 1   
    21    10    23 1   
    22    11    12 1   
    23    11    24 1   
    24    11    25 1   
    25    12    26 1   
@<TRIPOS>SUBSTRUCTURE
     1 TLZ         1 TEMP              0 ****  ****    0 ROOT
