@<TRIPOS>MOLECULE
TLZ
   26    25     1     0     0
SMALL
No Charge or Current Charge


@<TRIPOS>ATOM
      1 O6          -4.5810     0.1730     0.2670 oh         1 TLZ      -0.719000
      2 C6          -3.3270     0.6900    -0.2260 c3         1 TLZ       0.143100
      3 C5          -2.1140    -0.1680     0.2610 c3         1 TLZ       0.144800
      4 O5          -2.2020    -1.5030    -0.2770 oh         1 TLZ      -0.720500
      5 C4          -0.7290     0.4650    -0.1270 c3         1 TLZ       0.118800
      6 O4          -0.6110     1.7790     0.4670 oh         1 TLZ      -0.716000
      7 C3           0.5070    -0.4160     0.2810 c3         1 TLZ       0.118800
      8 O3           0.4260    -1.7150    -0.3370 oh         1 TLZ      -0.716000
      9 C2           1.8800     0.1890    -0.1490 c3         1 TLZ       0.144800
     10 O2           2.0880    -0.0460    -1.5560 oh         1 TLZ      -0.720500
     11 C1           3.0880    -0.4220     0.6120 c3         1 TLZ       0.143100
     12 O1           4.3150     0.0490     0.0190 oh         1 TLZ      -0.719000
     13 H1          -5.2980     0.7060    -0.1510 ho         1 TLZ       0.506000
     14 H2          -3.3280     0.7140    -1.3250 h1         1 TLZ       0.033700
     15 H3          -3.1980     1.7250     0.1190 h1         1 TLZ       0.033700
     16 H4          -2.1580    -0.2190     1.3580 h1         1 TLZ       0.050200
     17 H5          -1.2500    -1.8110    -0.3190 ho         1 TLZ       0.525000
     18 H6          -0.7090     0.5650    -1.2220 h1         1 TLZ       0.084700
     19 H7          -0.7180     1.6880     1.4440 ho         1 TLZ       0.513500
     20 H8           0.5000    -0.5180     1.3760 h1         1 TLZ       0.084700
     21 H9           1.0410    -1.6210    -1.1120 ho         1 TLZ       0.513500
     22 H10          1.8790     1.2680     0.0570 h1         1 TLZ       0.050200
     23 H11          3.0660     0.0700    -1.6620 ho         1 TLZ       0.525000
     24 H12          3.0320    -0.1280     1.6690 h1         1 TLZ       0.033700
     25 H13          3.0390    -1.5190     0.5680 h1         1 TLZ       0.033700
     26 H14          5.0560    -0.2920     0.5750 ho         1 TLZ       0.506000
@<TRIPOS>BOND
     1     1     2 1   
     2     1    13 1   
     3     2     3 1   
     4     2    14 1   
     5     2    15 1   
     6     3     4 1   
     7     3     5 1   
     8     3    16 1   
     9     4    17 1   
    10     5     6 1   
    11     5     7 1   
    12     5    18 1   
    13     6    19 1   
    14     7     8 1   
    15     7     9 1   
    16     7    20 1   
    17     8    21 1   
    18     9    10 1   
    19     9    11 1   
    20     9    22 1   
    21    10    23 1   
    22    11    12 1   
    23    11    24 1   
    24    11    25 1   
    25    12    26 1   
@<TRIPOS>SUBSTRUCTURE
     1 TLZ         1 TEMP              0 ****  ****    0 ROOT
