@<TRIPOS>MOLECULE
TM0
   28    29     1     0     0
SMALL
abcg2


@<TRIPOS>ATOM
      1 N1           2.5600    -5.5380   -55.6610 nc         1 TM0      -0.695000
      2 C4           2.0240    -3.1960   -54.8780 c3         1 TM0      -0.057400
      3 C5           1.7840    -3.5270   -53.4200 ca         1 TM0      -0.085300
      4 C6           0.4820    -3.6330   -52.9290 ca         1 TM0      -0.093500
      5 C7           0.2540    -3.9630   -51.5980 ca         1 TM0      -0.112000
      6 C8           1.3270    -4.1930   -50.7410 ca         1 TM0      -0.106000
      7 C10          2.8530    -3.7570   -52.5570 ca         1 TM0      -0.093500
      8 N            3.3940    -8.2350   -56.0350 n8         1 TM0      -0.989200
      9 C            3.0030    -7.7010   -58.3970 c3         1 TM0      -0.090100
     10 O            1.0320    -5.7200   -57.2270 os         1 TM0      -0.121700
     11 C1           2.4200    -7.6940   -56.9800 c3         1 TM0       0.138200
     12 C2           2.0470    -6.3030   -56.5740 cd         1 TM0       0.490300
     13 C3           1.8090    -4.3850   -55.7540 cc         1 TM0       0.562300
     14 C9           2.6280    -4.0880   -51.2240 ca         1 TM0      -0.112000
     15 N2           0.8830    -4.4300   -56.6690 nd         1 TM0      -0.374300
     16 H1           3.0510    -2.8520   -55.0150 hc         1 TM0       0.074200
     17 H2           1.3550    -2.4010   -55.2080 hc         1 TM0       0.074200
     18 H3          -0.3550    -3.4550   -53.5940 ha         1 TM0       0.116500
     19 H4          -0.7610    -4.0390   -51.2290 ha         1 TM0       0.113500
     20 H5           1.1500    -4.4490   -49.7040 ha         1 TM0       0.112000
     21 H6           3.8670    -3.6770   -52.9300 ha         1 TM0       0.116500
     22 H8           3.6140    -9.1870   -56.3080 hn         1 TM0       0.409500
     23 H10          3.2490    -8.7270   -58.6760 hc         1 TM0       0.053033
     24 H11          2.2840    -7.3100   -59.1160 hc         1 TM0       0.053033
     25 H12          3.9120    -7.0990   -58.4350 hc         1 TM0       0.053033
     26 H13          1.4800    -8.2630   -56.9980 h1         1 TM0       0.041700
     27 H14          3.4680    -4.2630   -50.5630 ha         1 TM0       0.113500
     28 H7           2.9940    -8.2840   -55.1030 hn         1 TM0       0.409500
@<TRIPOS>BOND
     1     1    12 2   
     2     1    13 1   
     3     2     3 1   
     4     2    13 1   
     5     2    16 1   
     6     2    17 1   
     7     3     4 ar  
     8     3     7 ar  
     9     4     5 ar  
    10     4    18 1   
    11     5     6 ar  
    12     5    19 1   
    13     6    14 ar  
    14     6    20 1   
    15     7    14 ar  
    16     7    21 1   
    17     8    11 1   
    18     8    22 1   
    19     8    28 1   
    20     9    11 1   
    21     9    23 1   
    22     9    24 1   
    23     9    25 1   
    24    10    12 1   
    25    10    15 1   
    26    11    12 1   
    27    11    26 1   
    28    13    15 2   
    29    14    27 1   
@<TRIPOS>SUBSTRUCTURE
     1 TM0         1 TEMP              0 ****  ****    0 ROOT
