@<TRIPOS>MOLECULE
TM0
   28    29     1     0     0
SMALL
No Charge or Current Charge


@<TRIPOS>ATOM
      1 N1           2.5590    -5.5190   -56.0090 nc         1 TM0      -0.695000
      2 C4           1.7640    -3.4260   -54.9230 c3         1 TM0      -0.057400
      3 C5           1.6420    -3.5360   -53.4060 ca         1 TM0      -0.085300
      4 C6           0.4190    -3.2510   -52.7670 ca         1 TM0      -0.093500
      5 C7           0.3080    -3.3580   -51.3690 ca         1 TM0      -0.112000
      6 C8           1.4180    -3.7520   -50.6030 ca         1 TM0      -0.106000
      7 C10          2.7510    -3.9320   -52.6330 ca         1 TM0      -0.093500
      8 N            3.3270    -8.6470   -56.2560 n8         1 TM0      -0.989200
      9 C            3.5090    -7.3920   -58.3920 c3         1 TM0      -0.090100
     10 O            0.5700    -6.3950   -56.5710 os         1 TM0      -0.121700
     11 C1           2.5840    -7.7680   -57.2150 c3         1 TM0       0.138200
     12 C2           1.9280    -6.5300   -56.5760 cd         1 TM0       0.490300
     13 C3           1.5130    -4.7290   -55.6330 cc         1 TM0       0.562300
     14 C9           2.6400    -4.0390   -51.2360 ca         1 TM0      -0.112000
     15 N2           0.3000    -5.1670   -55.9270 nd         1 TM0      -0.374300
     16 H1           2.7590    -3.0540   -55.1910 hc         1 TM0       0.074200
     17 H2           1.0620    -2.6750   -55.3030 hc         1 TM0       0.074200
     18 H3          -0.4470    -2.9490   -53.3520 ha         1 TM0       0.116500
     19 H4          -0.6380    -3.1370   -50.8810 ha         1 TM0       0.113500
     20 H5           1.3320    -3.8350   -49.5220 ha         1 TM0       0.112000
     21 H6           3.7000    -4.1600   -53.1150 ha         1 TM0       0.116500
     22 H8           3.6470    -9.4920   -56.7470 hn         1 TM0       0.409500
     23 H10          3.9010    -8.2900   -58.8860 hc         1 TM0       0.053033
     24 H11          2.9590    -6.8080   -59.1390 hc         1 TM0       0.053033
     25 H12          4.3580    -6.7900   -58.0450 hc         1 TM0       0.053033
     26 H13          1.7680    -8.3760   -57.6320 h1         1 TM0       0.041700
     27 H14          3.4990    -4.3460   -50.6440 ha         1 TM0       0.113500
     28 H7           2.6740    -9.0150   -55.5510 hn         1 TM0       0.409500
@<TRIPOS>BOND
     1     1    12 2   
     2     1    13 1   
     3     2     3 1   
     4     2    13 1   
     5     2    16 1   
     6     2    17 1   
     7     3     4 ar  
     8     3     7 ar  
     9     4     5 ar  
    10     4    18 1   
    11     5     6 ar  
    12     5    19 1   
    13     6    14 ar  
    14     6    20 1   
    15     7    14 ar  
    16     7    21 1   
    17     8    11 1   
    18     8    22 1   
    19     8    28 1   
    20     9    11 1   
    21     9    23 1   
    22     9    24 1   
    23     9    25 1   
    24    10    12 1   
    25    10    15 1   
    26    11    12 1   
    27    11    26 1   
    28    13    15 2   
    29    14    27 1   
@<TRIPOS>SUBSTRUCTURE
     1 TM0         1 TEMP              0 ****  ****    0 ROOT
