@<TRIPOS>MOLECULE
TM3
   83    87     1     0     0
SMALL
No Charge or Current Charge


@<TRIPOS>ATOM
      1 C1          10.0280     0.8310    -1.3110 c6         1 TM3       0.153100
      2 C2           8.7000     1.6380    -1.2020 c6         1 TM3       0.125300
      3 N3           7.6340     0.8670    -0.4890 n3         1 TM3      -0.716600
      4 C4           8.1430     0.3730     0.8330 c6         1 TM3       0.125300
      5 C5           9.4850    -0.4050     0.6830 c6         1 TM3       0.153100
      6 O6          10.4680     0.4110     0.0030 os         1 TM3      -0.449000
      7 C13          6.3560     1.6170    -0.4070 c3         1 TM3       0.169800
      8 C14          5.1640     0.7910     0.1180 c3         1 TM3      -0.095400
      9 C15          3.8280     1.5460     0.0140 c3         1 TM3       0.224800
     10 N16          2.7440     0.7110     0.5370 nu         1 TM3      -0.885400
     11 C17          1.4480     0.7440     0.1320 cc         1 TM3       0.658700
     12 N23          0.9340     1.7060    -0.6410 nd         1 TM3      -0.655100
     13 C24         -0.3910     1.2990    -0.8040 ca         1 TM3       0.116400
     14 C25         -0.6530     0.1260    -0.1430 ca         1 TM3      -0.087200
     15 N26          0.5170    -0.2340     0.4640 na         1 TM3      -0.215600
     16 C32         -1.9130    -0.4930    -0.1700 ca         1 TM3      -0.080000
     17 C33         -2.9420     0.1370    -0.9060 ca         1 TM3      -0.121300
     18 C34         -2.6790     1.3550    -1.5840 ca         1 TM3      -0.115000
     19 C35         -1.3960     1.9430    -1.5370 ca         1 TM3      -0.078000
     20 C41          0.6720    -1.3810     1.3850 c3         1 TM3       0.043300
     21 C42          1.7010    -2.4040     0.9150 ca         1 TM3       0.298300
     22 C45          1.3260    -3.5450     0.1520 ca         1 TM3       0.111100
     23 C46          2.3300    -4.4410    -0.2530 ca         1 TM3      -0.164000
     24 C47          3.6590    -4.1670     0.1180 ca         1 TM3      -0.109000
     25 C48          3.9460    -3.0160     0.8750 ca         1 TM3       0.331300
     26 N49          2.9900    -2.1410     1.2650 nb         1 TM3      -0.679000
     27 O56          0.0220    -3.7890    -0.1950 oh         1 TM3      -0.522100
     28 C58          5.3670    -2.6950     1.2940 c3         1 TM3      -0.142400
     29 C60         -4.3290    -0.4840    -0.9640 c3         1 TM3       0.259100
     30 N61         -5.1890     0.1650     0.0280 nu         1 TM3      -0.950200
     31 C62         -6.5730     0.0280     0.1450 ca         1 TM3       0.322000
     32 C66         -7.1980    -1.1710    -0.2460 ca         1 TM3      -0.188000
     33 C67         -8.5910    -1.3250    -0.1400 ca         1 TM3      -0.035300
     34 C68         -9.3620    -0.2670     0.3680 ca         1 TM3      -0.161000
     35 C69         -8.7490     0.9320     0.7640 ca         1 TM3      -0.064000
     36 C70         -7.3530     1.0920     0.6600 ca         1 TM3      -0.151300
     37 C77         -9.2540    -2.6260    -0.5630 c3         1 TM3      -0.047800
     38 C79         -6.7270     2.4200     1.0970 c3         1 TM3      -0.026100
     39 C80         -6.4550     3.3630    -0.0960 c3         1 TM3      -0.084400
     40 C81         -5.8180     4.7010     0.3280 c3         1 TM3       0.162600
     41 O82         -5.6070     5.5220    -0.8240 oh         1 TM3      -0.661000
     42 H1           9.8790    -0.0550    -1.9450 h1         1 TM3       0.049950
     43 H1A         10.8090     1.4540    -1.7700 h1         1 TM3       0.049950
     44 H2           8.9050     2.5820    -0.6760 h1         1 TM3       0.041450
     45 H2A          8.3660     1.9020    -2.2170 h1         1 TM3       0.041450
     46 H4           8.2990     1.2160     1.5210 h1         1 TM3       0.041450
     47 H4A          7.4150    -0.3000     1.3060 h1         1 TM3       0.041450
     48 H5           9.8700    -0.6810     1.6750 h1         1 TM3       0.049950
     49 H5A          9.3210    -1.3290     0.1110 h1         1 TM3       0.049950
     50 H13          6.4800     2.5030     0.2310 h1         1 TM3       0.035200
     51 H13A         6.0920     1.9800    -1.4100 h1         1 TM3       0.035200
     52 H14          5.0950    -0.1390    -0.4590 hc         1 TM3       0.051700
     53 H14A         5.3350     0.5210     1.1660 hc         1 TM3       0.051700
     54 H15          3.8900     2.4820     0.5870 h1         1 TM3       0.051700
     55 H15A         3.6430     1.8040    -1.0380 h1         1 TM3       0.051700
     56 HN16         2.9960    -0.2070     0.9150 hn         1 TM3       0.510000
     57 H32         -2.1000    -1.4270     0.3550 ha         1 TM3       0.126000
     58 H34         -3.4700     1.8440    -2.1470 ha         1 TM3       0.111000
     59 H35         -1.1900     2.8740    -2.0590 ha         1 TM3       0.127000
     60 H41          0.9790    -0.9940     2.3640 h1         1 TM3       0.079700
     61 H41A        -0.2930    -1.8780     1.5340 h1         1 TM3       0.079700
     62 H46          2.0950    -5.3280    -0.8380 ha         1 TM3       0.124000
     63 H47          4.4620    -4.8390    -0.1750 ha         1 TM3       0.128000
     64 HO56        -0.0170    -4.6160    -0.7220 ho         1 TM3       0.473000
     65 H58          5.9590    -2.3610     0.4350 hc         1 TM3       0.053700
     66 H58A         5.4010    -1.9070     2.0550 hc         1 TM3       0.053700
     67 H58B         5.8570    -3.5810     1.7140 hc         1 TM3       0.053700
     68 H60         -4.7440    -0.3440    -1.9720 h1         1 TM3       0.040700
     69 H66         -6.6020    -1.9920    -0.6310 ha         1 TM3       0.109000
     70 H68        -10.4410    -0.3720     0.4590 ha         1 TM3       0.110000
     71 H69         -9.3640     1.7410     1.1530 ha         1 TM3       0.106000
     72 H77         -9.2740    -3.3410     0.2670 hc         1 TM3       0.040367
     73 H77A       -10.2880    -2.4620    -0.8900 hc         1 TM3       0.040367
     74 H77B        -8.7170    -3.0950    -1.3970 hc         1 TM3       0.040367
     75 H79         -7.3920     2.9320     1.8050 hc         1 TM3       0.044200
     76 H79A        -5.7950     2.2450     1.6480 hc         1 TM3       0.044200
     77 H80         -5.7940     2.8640    -0.8140 hc         1 TM3       0.054200
     78 H80A        -7.4000     3.5630    -0.6160 hc         1 TM3       0.054200
     79 H81         -6.4810     5.2100     1.0400 h1         1 TM3       0.015200
     80 H81A        -4.8630     4.5040     0.8350 h1         1 TM3       0.015200
     81 HO82        -5.2040     6.3610    -0.5060 ho         1 TM3       0.442000
     82 HO83        -4.8230     1.0370     0.4020 hn         1 TM3       0.473000
     83 HO84        -4.2670    -1.5640    -0.7720 h1         1 TM3       0.040700
@<TRIPOS>BOND
     1     1     2 1   
     2     1     6 1   
     3     1    42 1   
     4     1    43 1   
     5     2     3 1   
     6     2    44 1   
     7     2    45 1   
     8     3     4 1   
     9     3     7 1   
    10     4     5 1   
    11     4    46 1   
    12     4    47 1   
    13     5     6 1   
    14     5    48 1   
    15     5    49 1   
    16     7     8 1   
    17     7    50 1   
    18     7    51 1   
    19     8     9 1   
    20     8    52 1   
    21     8    53 1   
    22     9    10 1   
    23     9    54 1   
    24     9    55 1   
    25    10    11 1   
    26    10    56 1   
    27    11    12 2   
    28    11    15 1   
    29    12    13 1   
    30    13    14 ar  
    31    13    19 ar  
    32    14    15 1   
    33    14    16 ar  
    34    15    20 1   
    35    16    17 ar  
    36    16    57 1   
    37    17    18 ar  
    38    17    29 1   
    39    18    19 ar  
    40    18    58 1   
    41    19    59 1   
    42    20    21 1   
    43    20    60 1   
    44    20    61 1   
    45    21    22 ar  
    46    21    26 ar  
    47    22    23 ar  
    48    22    27 1   
    49    23    24 ar  
    50    23    62 1   
    51    24    25 ar  
    52    24    63 1   
    53    25    26 ar  
    54    25    28 1   
    55    27    64 1   
    56    28    65 1   
    57    28    66 1   
    58    28    67 1   
    59    29    30 1   
    60    29    68 1   
    61    29    83 1   
    62    30    31 1   
    63    30    82 1   
    64    31    32 ar  
    65    31    36 ar  
    66    32    33 ar  
    67    32    69 1   
    68    33    34 ar  
    69    33    37 1   
    70    34    35 ar  
    71    34    70 1   
    72    35    36 ar  
    73    35    71 1   
    74    36    38 1   
    75    37    72 1   
    76    37    73 1   
    77    37    74 1   
    78    38    39 1   
    79    38    75 1   
    80    38    76 1   
    81    39    40 1   
    82    39    77 1   
    83    39    78 1   
    84    40    41 1   
    85    40    79 1   
    86    40    80 1   
    87    41    81 1   
@<TRIPOS>SUBSTRUCTURE
     1 TM3         1 TEMP              0 ****  ****    0 ROOT
