@<TRIPOS>MOLECULE
TM3
   83    87     1     0     0
SMALL
bcc


@<TRIPOS>ATOM
      1 C1          10.0530     1.1520    -0.7780 c6         1 TM3       0.129900
      2 C2           8.6870     1.6540    -1.2030 c6         1 TM3       0.125300
      3 N3           7.6580     1.1100    -0.3350 n3         1 TM3      -0.716600
      4 C4           7.9560     1.4630     1.0420 c6         1 TM3       0.125300
      5 C5           9.3400     0.9730     1.4230 c6         1 TM3       0.129900
      6 O6          10.3340     1.4870     0.5640 os         1 TM3      -0.402600
      7 C13          6.3390     1.5420    -0.7530 c3         1 TM3       0.169800
      8 C14          5.2120     0.7840    -0.0670 c3         1 TM3      -0.095400
      9 C15          3.8620     1.1690    -0.6500 c3         1 TM3       0.224800
     10 N16          2.8000     0.4730     0.0500 nu         1 TM3      -0.830200
     11 C17          1.5460     0.5100    -0.4440 cc         1 TM3       0.658700
     12 N23          1.1440     1.2440    -1.4540 nd         1 TM3      -0.655100
     13 C24         -0.1960     0.9650    -1.5800 ca         1 TM3       0.116400
     14 C25         -0.5970     0.0280    -0.6100 ca         1 TM3      -0.087200
     15 N26          0.5430    -0.2370     0.1190 na         1 TM3      -0.186300
     16 C32         -1.8910    -0.4490    -0.5180 ca         1 TM3      -0.098000
     17 C33         -2.8230     0.0370    -1.4350 ca         1 TM3      -0.121300
     18 C34         -2.4370     0.9730    -2.3980 ca         1 TM3      -0.133000
     19 C35         -1.1320     1.4450    -2.4870 ca         1 TM3      -0.096000
     20 C41          0.6520    -1.0630     1.3040 c3         1 TM3       0.014000
     21 C42          1.3170    -2.3860     1.0240 ca         1 TM3       0.363600
     22 C45          0.5910    -3.5610     0.8240 ca         1 TM3       0.045800
     23 C46          1.3020    -4.7270     0.5640 ca         1 TM3      -0.182000
     24 C47          2.6820    -4.6780     0.4990 ca         1 TM3      -0.192300
     25 C48          3.3360    -3.4650     0.6920 ca         1 TM3       0.396600
     26 N49          2.6430    -2.3640     0.9560 nb         1 TM3      -0.679000
     27 O56         -0.7500    -3.5120     0.8970 oh         1 TM3      -0.483100
     28 C58          4.8250    -3.3390     0.5930 c3         1 TM3      -0.142400
     29 C60         -4.2530    -0.4190    -1.3620 c3         1 TM3       0.259100
     30 N61         -4.9160     0.2130    -0.2380 nu         1 TM3      -0.756600
     31 C62         -6.2700     0.0570    -0.0220 ca         1 TM3       0.183600
     32 C66         -6.9910    -0.9530    -0.6710 ca         1 TM3      -0.206000
     33 C67         -8.3460    -1.1590    -0.4330 ca         1 TM3      -0.035300
     34 C68         -9.0010    -0.3270     0.4680 ca         1 TM3      -0.179000
     35 C69         -8.2940     0.6820     1.1100 ca         1 TM3      -0.082000
     36 C70         -6.9420     0.8990     0.8890 ca         1 TM3      -0.151300
     37 C77         -9.0760    -2.2740    -1.1250 c3         1 TM3      -0.047800
     38 C79         -6.2310     2.0310     1.5790 c3         1 TM3      -0.026100
     39 C80         -6.0830     3.2730     0.6950 c3         1 TM3      -0.084400
     40 C81         -5.2960     4.3640     1.3940 c3         1 TM3       0.139400
     41 O82         -5.2020     5.4840     0.5410 oh         1 TM3      -0.598800
     42 H1          10.1000     0.0630    -0.9190 h1         1 TM3       0.049950
     43 H1A         10.8290     1.6050    -1.3970 h1         1 TM3       0.049950
     44 H2           8.6830     2.7580    -1.1970 h1         1 TM3       0.041450
     45 H2A          8.4990     1.3380    -2.2320 h1         1 TM3       0.041450
     46 H4           7.8920     2.5550     1.2000 h1         1 TM3       0.041450
     47 H4A          7.2340     0.9990     1.7160 h1         1 TM3       0.041450
     48 H5           9.5850     1.2940     2.4360 h1         1 TM3       0.049950
     49 H5A          9.3510    -0.1270     1.4050 h1         1 TM3       0.049950
     50 H13          6.2020     2.6270    -0.5990 h1         1 TM3       0.035200
     51 H13A         6.2640     1.3740    -1.8320 h1         1 TM3       0.035200
     52 H14          5.3770    -0.2900    -0.1990 hc         1 TM3       0.051700
     53 H14A         5.2070     0.9790     1.0080 hc         1 TM3       0.051700
     54 H15          3.7110     2.2480    -0.5600 h1         1 TM3       0.051700
     55 H15A         3.8420     0.9380    -1.7210 h1         1 TM3       0.051700
     56 HN16         3.0580    -0.4000     0.5050 hn         1 TM3       0.454800
     57 H32         -2.1750    -1.1840     0.2260 ha         1 TM3       0.144000
     58 H34         -3.1780     1.3370    -3.1000 ha         1 TM3       0.129000
     59 H35         -0.8540     2.1640    -3.2470 ha         1 TM3       0.145000
     60 H41          1.2370    -0.5240     2.0510 h1         1 TM3       0.079700
     61 H41A        -0.3470    -1.1880     1.7180 h1         1 TM3       0.079700
     62 H46          0.7810    -5.6650     0.4130 ha         1 TM3       0.142000
     63 H47          3.2470    -5.5780     0.2950 ha         1 TM3       0.146000
     64 HO56        -1.1320    -4.3790     0.7230 ho         1 TM3       0.434000
     65 H58          5.1150    -2.9330    -0.3790 hc         1 TM3       0.053700
     66 H58A         5.2110    -2.6640     1.3560 hc         1 TM3       0.053700
     67 H58B         5.3170    -4.3040     0.7060 hc         1 TM3       0.053700
     68 H60         -4.7590    -0.1910    -2.3090 h1         1 TM3       0.040700
     69 H66         -6.4900    -1.5990    -1.3810 ha         1 TM3       0.127000
     70 H68        -10.0570    -0.4620     0.6710 ha         1 TM3       0.128000
     71 H69         -8.8130     1.3290     1.8090 ha         1 TM3       0.124000
     72 H77         -9.1350    -3.1600    -0.4880 hc         1 TM3       0.040367
     73 H77A       -10.0980    -1.9900    -1.3750 hc         1 TM3       0.040367
     74 H77B        -8.5750    -2.5710    -2.0460 hc         1 TM3       0.040367
     75 H79         -6.7860     2.3060     2.4800 hc         1 TM3       0.044200
     76 H79A        -5.2440     1.7080     1.9300 hc         1 TM3       0.044200
     77 H80         -5.5870     3.0170    -0.2470 hc         1 TM3       0.054200
     78 H80A        -7.0770     3.6430     0.4280 hc         1 TM3       0.054200
     79 H81         -5.7950     4.6180     2.3390 h1         1 TM3       0.015200
     80 H81A        -4.3030     3.9750     1.6580 h1         1 TM3       0.015200
     81 HO82        -4.6770     6.1560     0.9850 ho         1 TM3       0.403000
     82 HO83        -4.5450     1.1240    -0.0250 hn         1 TM3       0.417800
     83 HO84        -4.2940    -1.5050    -1.2400 h1         1 TM3       0.040700
@<TRIPOS>BOND
     1     1     2 1   
     2     1     6 1   
     3     1    42 1   
     4     1    43 1   
     5     2     3 1   
     6     2    44 1   
     7     2    45 1   
     8     3     4 1   
     9     3     7 1   
    10     4     5 1   
    11     4    46 1   
    12     4    47 1   
    13     5     6 1   
    14     5    48 1   
    15     5    49 1   
    16     7     8 1   
    17     7    50 1   
    18     7    51 1   
    19     8     9 1   
    20     8    52 1   
    21     8    53 1   
    22     9    10 1   
    23     9    54 1   
    24     9    55 1   
    25    10    11 1   
    26    10    56 1   
    27    11    12 2   
    28    11    15 1   
    29    12    13 1   
    30    13    14 ar  
    31    13    19 ar  
    32    14    15 1   
    33    14    16 ar  
    34    15    20 1   
    35    16    17 ar  
    36    16    57 1   
    37    17    18 ar  
    38    17    29 1   
    39    18    19 ar  
    40    18    58 1   
    41    19    59 1   
    42    20    21 1   
    43    20    60 1   
    44    20    61 1   
    45    21    22 ar  
    46    21    26 ar  
    47    22    23 ar  
    48    22    27 1   
    49    23    24 ar  
    50    23    62 1   
    51    24    25 ar  
    52    24    63 1   
    53    25    26 ar  
    54    25    28 1   
    55    27    64 1   
    56    28    65 1   
    57    28    66 1   
    58    28    67 1   
    59    29    30 1   
    60    29    68 1   
    61    29    83 1   
    62    30    31 1   
    63    30    82 1   
    64    31    32 ar  
    65    31    36 ar  
    66    32    33 ar  
    67    32    69 1   
    68    33    34 ar  
    69    33    37 1   
    70    34    35 ar  
    71    34    70 1   
    72    35    36 ar  
    73    35    71 1   
    74    36    38 1   
    75    37    72 1   
    76    37    73 1   
    77    37    74 1   
    78    38    39 1   
    79    38    75 1   
    80    38    76 1   
    81    39    40 1   
    82    39    77 1   
    83    39    78 1   
    84    40    41 1   
    85    40    79 1   
    86    40    80 1   
    87    41    81 1   
@<TRIPOS>SUBSTRUCTURE
     1 TM3         1 TEMP              0 ****  ****    0 ROOT
