@<TRIPOS>MOLECULE
TM4
   15    15     1     0     0
SMALL
No Charge or Current Charge


@<TRIPOS>ATOM
      1 C6           2.6720    -1.2260    -0.0210 c3         1 TM4      -0.034900
      2 C1           1.4870    -0.2970    -0.0150 cc         1 TM4       0.052900
      3 O1           1.8100     1.0560     0.0110 os         1 TM4      -0.165200
      4 C5           0.7990     2.0100     0.0190 cc         1 TM4       0.020100
      5 C4          -0.5220     1.6070     0.0020 cd         1 TM4      -0.301200
      6 C3          -0.9280     0.2500    -0.0250 cs         1 TM4       0.281800
      7 S1          -2.5400    -0.2140    -0.0460 s          1 TM4      -0.523400
      8 C2           0.1600    -0.6820    -0.0320 cd         1 TM4       0.014900
      9 O2          -0.2400    -1.9810    -0.0580 oh         1 TM4      -0.525100
     10 H1           3.6180    -0.6730    -0.0040 hc         1 TM4       0.067367
     11 H2           2.6520    -1.8850     0.8550 hc         1 TM4       0.067367
     12 H3           2.6660    -1.8560    -0.9180 hc         1 TM4       0.067367
     13 H5           1.1680     3.0320     0.0400 h4         1 TM4       0.241000
     14 H6          -1.3130     2.3510     0.0080 ha         1 TM4       0.227000
     15 H4          -1.2270    -1.9590    -0.0650 ho         1 TM4       0.510000
@<TRIPOS>BOND
     1     1     2 1   
     2     1    10 1   
     3     1    11 1   
     4     1    12 1   
     5     2     3 1   
     6     2     8 2   
     7     3     4 1   
     8     4     5 2   
     9     4    13 1   
    10     5     6 1   
    11     5    14 1   
    12     6     7 2   
    13     6     8 1   
    14     8     9 1   
    15     9    15 1   
@<TRIPOS>SUBSTRUCTURE
     1 TM4         1 TEMP              0 ****  ****    0 ROOT
