@<TRIPOS>MOLECULE
TM4
   15    15     1     0     0
SMALL
bcc


@<TRIPOS>ATOM
      1 C6           2.6110    -1.1990    -0.0210 c3         1 TM4      -0.034900
      2 C1           1.4460    -0.2790    -0.0150 cc         1 TM4       0.052900
      3 O1           1.7510     1.0250     0.0100 os         1 TM4      -0.165200
      4 C5           0.8040     1.9530     0.0180 cc         1 TM4       0.070100
      5 C4          -0.5090     1.6430     0.0030 cd         1 TM4      -0.251200
      6 C3          -0.9220     0.2840    -0.0240 cs         1 TM4       0.281800
      7 S1          -2.5120    -0.2370    -0.0460 s          1 TM4      -0.523400
      8 C2           0.1420    -0.6750    -0.0320 cd         1 TM4       0.014900
      9 O2          -0.1350    -1.9810    -0.0560 oh         1 TM4      -0.486100
     10 H1           3.5470    -0.6450    -0.0040 hc         1 TM4       0.067367
     11 H2           2.5870    -1.8590     0.8470 hc         1 TM4       0.067367
     12 H3           2.6010    -1.8300    -0.9100 hc         1 TM4       0.067367
     13 H5           1.2020     2.9580     0.0380 h4         1 TM4       0.191000
     14 H6          -1.2400     2.4380     0.0110 ha         1 TM4       0.177000
     15 H4          -1.1100    -2.0630    -0.0680 ho         1 TM4       0.471000
@<TRIPOS>BOND
     1     1     2 1   
     2     1    10 1   
     3     1    11 1   
     4     1    12 1   
     5     2     3 1   
     6     2     8 2   
     7     3     4 1   
     8     4     5 2   
     9     4    13 1   
    10     5     6 1   
    11     5    14 1   
    12     6     7 2   
    13     6     8 1   
    14     8     9 1   
    15     9    15 1   
@<TRIPOS>SUBSTRUCTURE
     1 TM4         1 TEMP              0 ****  ****    0 ROOT
