@<TRIPOS>MOLECULE
TM7
   15    15     1     0     0
SMALL
No Charge or Current Charge


@<TRIPOS>ATOM
      1 S           -2.1620     1.2810    -0.2170 s          1 TM7      -0.434400
      2 O1           1.6960    -0.9750     0.1020 os         1 TM7      -0.175200
      3 C1           0.5410    -1.7250     0.0880 cc         1 TM7      -0.127900
      4 C2          -0.6480    -1.0250    -0.0110 cd         1 TM7       0.034900
      5 C3          -0.7180     0.4290    -0.0980 cs         1 TM7       0.310800
      6 C4           0.5500     1.0850    -0.0740 cc         1 TM7      -0.318200
      7 C5           1.7330     0.3930     0.0230 cd         1 TM7       0.121900
      8 C6           3.1060     1.0040     0.0590 c3         1 TM7      -0.054900
      9 H1          -1.6810    -2.6270     0.0290 ho         1 TM7       0.460000
     10 H2           0.6950    -2.7970     0.1570 h4         1 TM7       0.234000
     11 H3           0.5410     2.1680    -0.1350 ha         1 TM7       0.222000
     12 H4           3.8420     0.3540    -0.4290 hc         1 TM7       0.068367
     13 H5           3.1240     1.9720    -0.4560 hc         1 TM7       0.068367
     14 H6           3.4330     1.1660     1.0920 hc         1 TM7       0.068367
     15 O2          -1.8480    -1.6620    -0.0340 oh         1 TM7      -0.478100
@<TRIPOS>BOND
     1     1     5 2   
     2     2     3 1   
     3     2     7 1   
     4     3     4 2   
     5     3    10 1   
     6     4     5 1   
     7     4    15 1   
     8     5     6 1   
     9     6     7 2   
    10     6    11 1   
    11     7     8 1   
    12     8    12 1   
    13     8    13 1   
    14     8    14 1   
    15     9    15 1   
@<TRIPOS>SUBSTRUCTURE
     1 TM7         1 TEMP              0 ****  ****    0 ROOT
