@<TRIPOS>MOLECULE
TM7
   15    15     1     0     0
SMALL
abcg2


@<TRIPOS>ATOM
      1 S           -2.1480     1.2320    -0.3500 s          1 TM7      -0.434400
      2 O1           1.7070    -0.9420     0.1610 os         1 TM7      -0.175200
      3 C1           0.5510    -1.6180     0.1450 cc         1 TM7      -0.127900
      4 C2          -0.6490    -1.0130    -0.0040 cd         1 TM7       0.034900
      5 C3          -0.7110     0.4200    -0.1590 cs         1 TM7       0.310800
      6 C4           0.5570     1.0660    -0.1320 cc         1 TM7      -0.318200
      7 C5           1.7180     0.3820     0.0250 cd         1 TM7       0.121900
      8 C6           3.0760     0.9770     0.0690 c3         1 TM7      -0.054900
      9 H1          -1.6650    -2.6270     0.0890 ho         1 TM7       0.460000
     10 H2           0.6910    -2.6840     0.2650 h4         1 TM7       0.234000
     11 H3           0.6000     2.1400    -0.2380 ha         1 TM7       0.222000
     12 H4           3.7080     0.5630    -0.7190 hc         1 TM7       0.068367
     13 H5           3.0200     2.0540    -0.0640 hc         1 TM7       0.068367
     14 H6           3.5600     0.7710     1.0240 hc         1 TM7       0.068367
     15 O2          -1.8100    -1.6790    -0.0180 oh         1 TM7      -0.478100
@<TRIPOS>BOND
     1     1     5 2   
     2     2     3 1   
     3     2     7 1   
     4     3     4 2   
     5     3    10 1   
     6     4     5 1   
     7     4    15 1   
     8     5     6 1   
     9     6     7 2   
    10     6    11 1   
    11     7     8 1   
    12     8    12 1   
    13     8    13 1   
    14     8    14 1   
    15     9    15 1   
@<TRIPOS>SUBSTRUCTURE
     1 TM7         1 TEMP              0 ****  ****    0 ROOT
