@<TRIPOS>MOLECULE
TM8
   75    78     1     0     0
SMALL
abcg2


@<TRIPOS>ATOM
      1 N           -2.2450    -5.4060   -12.1240 ns         1 TM8      -0.497900
      2 CA          -0.8760    -5.8420   -12.2620 c3         1 TM8       0.046700
      3 C           -0.5300    -5.8370   -13.7520 c          1 TM8       0.587100
      4 O           -0.6150    -6.8390   -14.4440 o          1 TM8      -0.595100
      5 CB          -0.6540    -7.2110   -11.6170 c3         1 TM8      -0.040100
      6 CG          -0.9710    -7.1650   -10.1500 ca         1 TM8      -0.085300
      7 CD1         -0.0060    -6.7560    -9.2320 ca         1 TM8      -0.101000
      8 CD2         -2.2450    -7.4740    -9.6810 ca         1 TM8      -0.101000
      9 CE1         -0.3040    -6.6600    -7.8800 ca         1 TM8      -0.108500
     10 CE2         -2.5500    -7.3750    -8.3300 ca         1 TM8      -0.108500
     11 CZ          -1.5800    -6.9680    -7.4240 ca         1 TM8      -0.107000
     12 CAA         -6.7120    -2.3560   -11.2040 ca         1 TM8      -0.087500
     13 CAB         -8.0950    -2.4590   -11.2900 ca         1 TM8      -0.115000
     14 CAC         -8.7460    -3.5490   -10.7300 ca         1 TM8      -0.098000
     15 CAD         -8.0090    -4.5320   -10.0790 ca         1 TM8      -0.115000
     16 CAE         -6.6300    -4.4230    -9.9910 ca         1 TM8      -0.087500
     17 CAF         -5.9680    -3.3330   -10.5540 ca         1 TM8      -0.099300
     18 CAG         -4.4760    -3.2300   -10.4670 c3         1 TM8       0.230900
     19 CAI         -2.6070    -4.3510   -11.3670 c          1 TM8       0.647100
     20 CAP         -0.0550    -4.3240   -15.6340 c3         1 TM8       0.121700
     21 CAQ          1.3900    -4.4540   -16.1220 c3         1 TM8      -0.066400
     22 CAR          2.3530    -3.5530   -15.3620 c3         1 TM8      -0.296400
     23 CAT         -0.6660    -2.9480   -15.9160 c3         1 TM8      -0.047100
     24 CAV         -2.0990    -2.8680   -15.4680 ca         1 TM8      -0.088300
     25 CBB         -2.4530    -2.1340   -14.3400 ca         1 TM8      -0.105000
     26 CBC         -3.7680    -2.0990   -13.8960 ca         1 TM8      -0.108000
     27 CBD         -4.7510    -2.8050   -14.5710 ca         1 TM8      -0.102000
     28 CBE         -4.4120    -3.5360   -15.7030 ca         1 TM8      -0.108000
     29 CBF         -3.0970    -3.5640   -16.1480 ca         1 TM8      -0.105000
     30 CBH          4.9950    -2.7420   -14.8980 ca         1 TM8      -0.267500
     31 CBK          5.4750    -3.1800   -13.6710 ca         1 TM8      -0.017500
     32 CBL          6.2100    -2.3030   -12.8880 ca         1 TM8      -0.128000
     33 CBM          6.4590    -1.0120   -13.3350 ca         1 TM8      -0.055000
     34 CBN          5.9730    -0.5880   -14.5650 ca         1 TM8      -0.128000
     35 CBO          5.2360    -1.4540   -15.3580 ca         1 TM8      -0.017500
     36 NAN         -0.1800    -4.6300   -14.2240 ns         1 TM8      -0.493900
     37 OAH         -3.9370    -4.2710   -11.2840 os         1 TM8      -0.452100
     38 OAK         -1.8440    -3.5740   -10.8340 o          1 TM8      -0.552000
     39 OBI          4.1540    -3.4420   -17.2940 o          1 TM8      -0.520000
     40 OBJ          4.3990    -5.2230   -15.5370 o          1 TM8      -0.520000
     41 SBG          4.0370    -3.8520   -15.8950 sy         1 TM8       1.042500
     42 H1          -2.9700    -5.9910   -12.5100 hn         1 TM8       0.336500
     43 H2          -0.2510    -5.1080   -11.7490 h1         1 TM8       0.088700
     44 H3          -1.2700    -7.9590   -12.1200 hc         1 TM8       0.069700
     45 H4           0.3880    -7.5020   -11.7710 hc         1 TM8       0.069700
     46 H5           0.9910    -6.5090    -9.5790 ha         1 TM8       0.110000
     47 H6          -3.0070    -7.8020   -10.3770 ha         1 TM8       0.110000
     48 H7           0.4620    -6.3480    -7.1800 ha         1 TM8       0.112000
     49 H8          -3.5460    -7.6210    -7.9850 ha         1 TM8       0.112000
     50 H9          -1.8140    -6.8960    -6.3700 ha         1 TM8       0.112000
     51 H11         -8.6610    -1.6880   -11.7970 ha         1 TM8       0.115000
     52 H12         -9.8230    -3.6330   -10.7970 ha         1 TM8       0.114000
     53 H13         -8.5120    -5.3820    -9.6360 ha         1 TM8       0.115000
     54 H14         -6.0630    -5.1910    -9.4760 ha         1 TM8       0.114000
     55 H15         -4.1350    -2.2520   -10.8140 h1         1 TM8       0.055700
     56 H16         -4.1370    -3.3570    -9.4350 h1         1 TM8       0.055700
     57 H17         -0.6360    -5.0690   -16.1810 h1         1 TM8       0.079700
     58 H18          1.4190    -4.2230   -17.1890 hc         1 TM8       0.072700
     59 H19          1.6920    -5.4970   -16.0080 hc         1 TM8       0.072700
     60 H20          2.3260    -3.7450   -14.2880 h1         1 TM8       0.094200
     61 H21          2.1620    -2.4920   -15.5310 h1         1 TM8       0.094200
     62 H22         -0.5870    -2.7600   -16.9900 hc         1 TM8       0.055200
     63 H23         -0.0870    -2.1640   -15.4190 hc         1 TM8       0.055200
     64 H24         -1.6920    -1.5790   -13.8030 ha         1 TM8       0.111500
     65 H25         -4.0200    -1.5130   -13.0210 ha         1 TM8       0.111500
     66 H26         -5.7750    -2.7830   -14.2210 ha         1 TM8       0.116000
     67 H27         -5.1730    -4.0850   -16.2420 ha         1 TM8       0.111500
     68 H28         -2.8450    -4.1340   -17.0350 ha         1 TM8       0.111500
     69 H29          5.2850    -4.1880   -13.3260 ha         1 TM8       0.137500
     70 H30          6.5930    -2.6310   -11.9320 ha         1 TM8       0.121500
     71 H31          7.0370    -0.3330   -12.7220 ha         1 TM8       0.118000
     72 H32          6.1710     0.4180   -14.9110 ha         1 TM8       0.121500
     73 H33          4.8610    -1.1270   -16.3190 ha         1 TM8       0.137500
     74 H34         -0.1800    -3.8590   -13.5740 hn         1 TM8       0.320500
     75 H10         -6.2100    -1.5020   -11.6430 ha         1 TM8       0.114000
@<TRIPOS>BOND
     1     1     2 1   
     2     1    19 1   
     3     1    42 1   
     4     2     3 1   
     5     2     5 1   
     6     2    43 1   
     7     3     4 2   
     8     3    36 1   
     9     5     6 1   
    10     5    44 1   
    11     5    45 1   
    12     6     7 ar  
    13     6     8 ar  
    14     7     9 ar  
    15     7    46 1   
    16     8    10 ar  
    17     8    47 1   
    18     9    11 ar  
    19     9    48 1   
    20    10    11 ar  
    21    10    49 1   
    22    11    50 1   
    23    12    13 ar  
    24    12    17 ar  
    25    12    75 1   
    26    13    14 ar  
    27    13    51 1   
    28    14    15 ar  
    29    14    52 1   
    30    15    16 ar  
    31    15    53 1   
    32    16    17 ar  
    33    16    54 1   
    34    17    18 1   
    35    18    37 1   
    36    18    55 1   
    37    18    56 1   
    38    19    37 1   
    39    19    38 2   
    40    20    21 1   
    41    20    23 1   
    42    20    36 1   
    43    20    57 1   
    44    21    22 1   
    45    21    58 1   
    46    21    59 1   
    47    22    41 1   
    48    22    60 1   
    49    22    61 1   
    50    23    24 1   
    51    23    62 1   
    52    23    63 1   
    53    24    25 ar  
    54    24    29 ar  
    55    25    26 ar  
    56    25    64 1   
    57    26    27 ar  
    58    26    65 1   
    59    27    28 ar  
    60    27    66 1   
    61    28    29 ar  
    62    28    67 1   
    63    29    68 1   
    64    30    31 ar  
    65    30    35 ar  
    66    30    41 1   
    67    31    32 ar  
    68    31    69 1   
    69    32    33 ar  
    70    32    70 1   
    71    33    34 ar  
    72    33    71 1   
    73    34    35 ar  
    74    34    72 1   
    75    35    73 1   
    76    36    74 1   
    77    39    41 2   
    78    40    41 2   
@<TRIPOS>SUBSTRUCTURE
     1 TM8         1 TEMP              0 ****  ****    0 ROOT
