@<TRIPOS>MOLECULE
TM8
   75    78     1     0     0
SMALL
No Charge or Current Charge


@<TRIPOS>ATOM
      1 N           -1.5220    -5.4500   -11.9230 ns         1 TM8      -0.497900
      2 CA          -0.4740    -6.4800   -12.1410 c3         1 TM8       0.046700
      3 C            0.0940    -6.4020   -13.5920 c          1 TM8       0.587100
      4 O            0.6960    -7.3230   -14.1280 o          1 TM8      -0.595100
      5 CB          -1.0220    -7.8880   -11.7930 c3         1 TM8      -0.040100
      6 CG          -1.6160    -7.9630   -10.3900 ca         1 TM8      -0.085300
      7 CD1         -0.7710    -8.0530    -9.2670 ca         1 TM8      -0.101000
      8 CD2         -3.0130    -7.9280   -10.2030 ca         1 TM8      -0.101000
      9 CE1         -1.3150    -8.1070    -7.9720 ca         1 TM8      -0.108500
     10 CE2         -3.5570    -7.9810    -8.9080 ca         1 TM8      -0.108500
     11 CZ          -2.7080    -8.0710    -7.7920 ca         1 TM8      -0.107000
     12 CAA         -4.2190    -0.9490   -11.1210 ca         1 TM8      -0.087500
     13 CAB         -5.4110    -0.3020   -11.4910 ca         1 TM8      -0.115000
     14 CAC         -6.6520    -0.8450   -11.1150 ca         1 TM8      -0.098000
     15 CAD         -6.6990    -2.0360   -10.3710 ca         1 TM8      -0.115000
     16 CAE         -5.5070    -2.6830   -10.0020 ca         1 TM8      -0.087500
     17 CAF         -4.2600    -2.1420   -10.3730 ca         1 TM8      -0.099300
     18 CAG         -2.9700    -2.8540    -9.9900 c3         1 TM8       0.230900
     19 CAI         -1.5720    -4.5810   -10.8740 c          1 TM8       0.647100
     20 CAP         -0.0420    -5.0170   -15.7060 c3         1 TM8       0.121700
     21 CAQ          1.4250    -4.6720   -16.0700 c3         1 TM8      -0.066400
     22 CAR          2.0140    -3.4490   -15.3080 c3         1 TM8      -0.296400
     23 CAT         -1.0700    -3.9600   -16.1860 c3         1 TM8      -0.047100
     24 CAV         -2.4730    -4.2220   -15.6370 ca         1 TM8      -0.088300
     25 CBB         -2.9940    -3.4190   -14.6020 ca         1 TM8      -0.105000
     26 CBC         -4.2640    -3.6910   -14.0640 ca         1 TM8      -0.108000
     27 CBD         -5.0220    -4.7650   -14.5590 ca         1 TM8      -0.102000
     28 CBE         -4.5090    -5.5670   -15.5920 ca         1 TM8      -0.108000
     29 CBF         -3.2380    -5.2970   -16.1290 ca         1 TM8      -0.105000
     30 CBH          4.1310    -1.6790   -14.7040 ca         1 TM8      -0.267500
     31 CBK          4.6260    -1.8500   -13.3940 ca         1 TM8      -0.017500
     32 CBL          4.9160    -0.7260   -12.6000 ca         1 TM8      -0.128000
     33 CBM          4.7120     0.5690   -13.1060 ca         1 TM8      -0.055000
     34 CBN          4.2150     0.7410   -14.4090 ca         1 TM8      -0.128000
     35 CBO          3.9230    -0.3770   -15.2090 ca         1 TM8      -0.017500
     36 NAN         -0.2090    -5.2410   -14.2700 ns         1 TM8      -0.493900
     37 OAH         -2.7080    -3.8480   -10.9890 os         1 TM8      -0.452100
     38 OAK         -0.7290    -4.4720    -9.9990 o          1 TM8      -0.552000
     39 OBI          3.7740    -2.7200   -17.1350 o          1 TM8      -0.520000
     40 OBJ          4.5240    -4.2640   -15.2360 o          1 TM8      -0.520000
     41 SBG          3.7430    -3.1180   -15.7210 sy         1 TM8       1.042500
     42 H1          -2.3310    -5.4330   -12.5330 hn         1 TM8       0.336500
     43 H2           0.3710    -6.2590   -11.4760 h1         1 TM8       0.088700
     44 H3          -1.7750    -8.1700   -12.5390 hc         1 TM8       0.069700
     45 H4          -0.2120    -8.6210   -11.8890 hc         1 TM8       0.069700
     46 H5           0.3090    -8.0760    -9.3970 ha         1 TM8       0.110000
     47 H6          -3.6780    -7.8520   -11.0610 ha         1 TM8       0.110000
     48 H7          -0.6570    -8.1750    -7.1080 ha         1 TM8       0.112000
     49 H8          -4.6350    -7.9500    -8.7700 ha         1 TM8       0.112000
     50 H9          -3.1290    -8.1110    -6.7900 ha         1 TM8       0.112000
     51 H11         -5.3740     0.6180   -12.0690 ha         1 TM8       0.115000
     52 H12         -7.5740    -0.3450   -11.4020 ha         1 TM8       0.114000
     53 H13         -7.6590    -2.4590   -10.0820 ha         1 TM8       0.115000
     54 H14         -5.5510    -3.6090    -9.4320 ha         1 TM8       0.114000
     55 H15         -2.1490    -2.1270    -9.9370 h1         1 TM8       0.055700
     56 H16         -3.0810    -3.3150    -8.9990 h1         1 TM8       0.055700
     57 H17         -0.2940    -5.9580   -16.2140 h1         1 TM8       0.079700
     58 H18          1.4890    -4.4980   -17.1520 hc         1 TM8       0.072700
     59 H19          2.0460    -5.5530   -15.8650 hc         1 TM8       0.072700
     60 H20          1.9790    -3.6170   -14.2260 h1         1 TM8       0.094200
     61 H21          1.4590    -2.5360   -15.5460 h1         1 TM8       0.094200
     62 H22         -1.0890    -3.9520   -17.2820 hc         1 TM8       0.055200
     63 H23         -0.7400    -2.9600   -15.8820 hc         1 TM8       0.055200
     64 H24         -2.4140    -2.5890   -14.2050 ha         1 TM8       0.111500
     65 H25         -4.6590    -3.0710   -13.2620 ha         1 TM8       0.111500
     66 H26         -6.0040    -4.9760   -14.1410 ha         1 TM8       0.116000
     67 H27         -5.0940    -6.4000   -15.9740 ha         1 TM8       0.111500
     68 H28         -2.8450    -5.9290   -16.9220 ha         1 TM8       0.111500
     69 H29          4.7870    -2.8470   -12.9860 ha         1 TM8       0.137500
     70 H30          5.2980    -0.8600   -11.5910 ha         1 TM8       0.121500
     71 H31          4.9370     1.4360   -12.4890 ha         1 TM8       0.118000
     72 H32          4.0550     1.7440   -14.8000 ha         1 TM8       0.121500
     73 H33          3.5350    -0.2270   -16.2160 ha         1 TM8       0.137500
     74 H34         -0.7130    -4.5410   -13.7410 hn         1 TM8       0.320500
     75 H10         -3.2630    -0.5250   -11.4220 ha         1 TM8       0.114000
@<TRIPOS>BOND
     1     1     2 1   
     2     1    19 1   
     3     1    42 1   
     4     2     3 1   
     5     2     5 1   
     6     2    43 1   
     7     3     4 2   
     8     3    36 1   
     9     5     6 1   
    10     5    44 1   
    11     5    45 1   
    12     6     7 ar  
    13     6     8 ar  
    14     7     9 ar  
    15     7    46 1   
    16     8    10 ar  
    17     8    47 1   
    18     9    11 ar  
    19     9    48 1   
    20    10    11 ar  
    21    10    49 1   
    22    11    50 1   
    23    12    13 ar  
    24    12    17 ar  
    25    12    75 1   
    26    13    14 ar  
    27    13    51 1   
    28    14    15 ar  
    29    14    52 1   
    30    15    16 ar  
    31    15    53 1   
    32    16    17 ar  
    33    16    54 1   
    34    17    18 1   
    35    18    37 1   
    36    18    55 1   
    37    18    56 1   
    38    19    37 1   
    39    19    38 2   
    40    20    21 1   
    41    20    23 1   
    42    20    36 1   
    43    20    57 1   
    44    21    22 1   
    45    21    58 1   
    46    21    59 1   
    47    22    41 1   
    48    22    60 1   
    49    22    61 1   
    50    23    24 1   
    51    23    62 1   
    52    23    63 1   
    53    24    25 ar  
    54    24    29 ar  
    55    25    26 ar  
    56    25    64 1   
    57    26    27 ar  
    58    26    65 1   
    59    27    28 ar  
    60    27    66 1   
    61    28    29 ar  
    62    28    67 1   
    63    29    68 1   
    64    30    31 ar  
    65    30    35 ar  
    66    30    41 1   
    67    31    32 ar  
    68    31    69 1   
    69    32    33 ar  
    70    32    70 1   
    71    33    34 ar  
    72    33    71 1   
    73    34    35 ar  
    74    34    72 1   
    75    35    73 1   
    76    36    74 1   
    77    39    41 2   
    78    40    41 2   
@<TRIPOS>SUBSTRUCTURE
     1 TM8         1 TEMP              0 ****  ****    0 ROOT
