@<TRIPOS>MOLECULE
TMA
   17    16     1     0     0
SMALL
No Charge or Current Charge


@<TRIPOS>ATOM
      1 N1          -0.0110    -0.0130     0.0050 n4         1 TMA      -0.494000
      2 C1           0.0250     1.2260     0.9110 c3         1 TMA       0.075900
      3 C2          -0.0780    -1.2790     0.8720 c3         1 TMA       0.075900
      4 C3          -1.2470     0.0520    -0.9020 c3         1 TMA       0.075900
      5 C4           1.2570    -0.0520    -0.8590 c3         1 TMA       0.075900
      6 H11          0.9060     1.1780     1.5550 hx         1 TMA       0.099617
      7 H12          0.0730     2.1250     0.2930 hx         1 TMA       0.099617
      8 H13         -0.8770     1.2510     1.5250 hx         1 TMA       0.099617
      9 H21         -0.9800    -1.2490     1.4860 hx         1 TMA       0.099617
     10 H22         -0.1030    -2.1590     0.2260 hx         1 TMA       0.099617
     11 H23          0.8030    -1.3230     1.5170 hx         1 TMA       0.099617
     12 H31         -1.1970     0.9520    -1.5170 hx         1 TMA       0.099617
     13 H32         -1.2710    -0.8310    -1.5450 hx         1 TMA       0.099617
     14 H33         -2.1480     0.0790    -0.2850 hx         1 TMA       0.099617
     15 H41          2.1350    -0.0980    -0.2120 hx         1 TMA       0.099617
     16 H42          1.2300    -0.9340    -1.5030 hx         1 TMA       0.099617
     17 H43          1.3030     0.8490    -1.4750 hx         1 TMA       0.099617
@<TRIPOS>BOND
     1     1     2 1   
     2     1     3 1   
     3     1     4 1   
     4     1     5 1   
     5     2     6 1   
     6     2     7 1   
     7     2     8 1   
     8     3     9 1   
     9     3    10 1   
    10     3    11 1   
    11     4    12 1   
    12     4    13 1   
    13     4    14 1   
    14     5    15 1   
    15     5    16 1   
    16     5    17 1   
@<TRIPOS>SUBSTRUCTURE
     1 TMA         1 TEMP              0 ****  ****    0 ROOT
