@<TRIPOS>MOLECULE
TMA
   17    16     1     0     0
SMALL
bcc


@<TRIPOS>ATOM
      1 N1          -0.0100    -0.0130     0.0050 n4         1 TMA      -0.606800
      2 C1           0.0250     1.1890     0.8830 c3         1 TMA       0.104100
      3 C2          -0.0760    -1.2410     0.8450 c3         1 TMA       0.104100
      4 C3          -1.2100     0.0510    -0.8740 c3         1 TMA       0.104100
      5 C4           1.2200    -0.0520    -0.8330 c3         1 TMA       0.104100
      6 H11          0.9050     1.1390     1.5190 hx         1 TMA       0.099617
      7 H12          0.0680     2.0800     0.2640 hx         1 TMA       0.099617
      8 H13         -0.8730     1.2080     1.4950 hx         1 TMA       0.099617
      9 H21         -0.9790    -1.2100     1.4490 hx         1 TMA       0.099617
     10 H22         -0.0970    -2.1140     0.1990 hx         1 TMA       0.099617
     11 H23          0.7980    -1.2800     1.4890 hx         1 TMA       0.099617
     12 H31         -1.1580     0.9490    -1.4830 hx         1 TMA       0.099617
     13 H32         -1.2300    -0.8290    -1.5110 hx         1 TMA       0.099617
     14 H33         -2.1030     0.0770    -0.2550 hx         1 TMA       0.099617
     15 H41          2.0910    -0.0940    -0.1850 hx         1 TMA       0.099617
     16 H42          1.1890    -0.9320    -1.4680 hx         1 TMA       0.099617
     17 H43          1.2600     0.8450    -1.4460 hx         1 TMA       0.099617
@<TRIPOS>BOND
     1     1     2 1   
     2     1     3 1   
     3     1     4 1   
     4     1     5 1   
     5     2     6 1   
     6     2     7 1   
     7     2     8 1   
     8     3     9 1   
     9     3    10 1   
    10     3    11 1   
    11     4    12 1   
    12     4    13 1   
    13     4    14 1   
    14     5    15 1   
    15     5    16 1   
    16     5    17 1   
@<TRIPOS>SUBSTRUCTURE
     1 TMA         1 TEMP              0 ****  ****    0 ROOT
