@<TRIPOS>MOLECULE
TMC
   34    36     1     0     0
SMALL
bcc


@<TRIPOS>ATOM
      1 O16          1.5800    -0.2600    -4.2200 oh         1 TMC      -0.573800
      2 O18         -0.4550     1.8880    -3.2170 oh         1 TMC      -0.566800
      3 O9          -2.6060     0.3690     1.9540 o          1 TMC      -0.635500
      4 O7           1.1930     0.2470     4.4060 o          1 TMC      -0.603500
      5 N8          -0.6760    -0.1910     0.8750 n          1 TMC      -0.373000
      6 N5          -0.6810     0.2750     3.1390 ns         1 TMC      -0.600500
      7 C1           0.0420    -0.3290    -2.4080 cx         1 TMC      -0.112000
      8 C10         -0.2450     1.1180    -2.0600 c5         1 TMC       0.180100
      9 C14         -1.4680     1.0690    -1.1260 c5         1 TMC      -0.144400
     10 C17         -1.3960    -0.2850    -0.4090 c5         1 TMC       0.151700
     11 C13         -0.6720    -1.1780    -1.3890 cx         1 TMC      -0.162700
     12 C15         -1.1510    -1.1370    -2.8060 cx         1 TMC      -0.071400
     13 C12          1.4020    -0.7190    -2.9000 c3         1 TMC       0.184400
     14 C11         -1.4080     0.1650     1.9830 c          1 TMC       0.821500
     15 C6           0.6820     0.1090     3.3080 c          1 TMC       0.729700
     16 C4           1.3930    -0.2270     2.0940 cc         1 TMC      -0.271400
     17 C2           0.6790    -0.3540     0.9600 cd         1 TMC       0.042600
     18 C3           2.8720    -0.4210     2.1490 c3         1 TMC      -0.018900
     19 H16          2.4560    -0.5300    -4.5090 ho         1 TMC       0.401000
     20 H5          -1.2160     0.5210     3.9630 hn         1 TMC       0.343500
     21 H10          0.6200     1.5050    -1.5000 h1         1 TMC       0.032700
     22 H142        -2.3830     1.1150    -1.7210 hc         1 TMC       0.071200
     23 H141        -1.5020     1.9090    -0.4320 hc         1 TMC       0.071200
     24 H17         -2.3870    -0.6700    -0.1770 h1         1 TMC       0.102700
     25 H13         -0.2440    -2.1090    -1.0310 hc         1 TMC       0.099700
     26 H152        -2.0840    -0.6440    -3.0510 hc         1 TMC       0.085200
     27 H151        -0.9630    -2.0260    -3.3960 hc         1 TMC       0.085200
     28 H122         2.1630    -0.2970    -2.2270 h1         1 TMC       0.015700
     29 H121         1.5000    -1.8120    -2.8380 h1         1 TMC       0.015700
     30 H2           1.1730    -0.6140     0.0360 h4         1 TMC       0.158000
     31 H33          3.3820     0.4890     2.4690 hc         1 TMC       0.045700
     32 H32          3.1450    -1.2080     2.8530 hc         1 TMC       0.045700
     33 H31          3.2650    -0.6970     1.1720 hc         1 TMC       0.045700
     34 H18         -0.5590     2.8060    -2.9490 ho         1 TMC       0.404000
@<TRIPOS>BOND
     1     1    13 1   
     2     1    19 1   
     3     2     8 1   
     4     2    34 1   
     5     3    14 2   
     6     4    15 2   
     7     5    10 1   
     8     5    14 1   
     9     5    17 1   
    10     6    14 1   
    11     6    15 1   
    12     6    20 1   
    13     7     8 1   
    14     7    11 1   
    15     7    12 1   
    16     7    13 1   
    17     8     9 1   
    18     8    21 1   
    19     9    10 1   
    20     9    22 1   
    21     9    23 1   
    22    10    11 1   
    23    10    24 1   
    24    11    12 1   
    25    11    25 1   
    26    12    26 1   
    27    12    27 1   
    28    13    28 1   
    29    13    29 1   
    30    15    16 1   
    31    16    17 2   
    32    16    18 1   
    33    17    30 1   
    34    18    31 1   
    35    18    32 1   
    36    18    33 1   
@<TRIPOS>SUBSTRUCTURE
     1 TMC         1 TEMP              0 ****  ****    0 ROOT
