@<TRIPOS>MOLECULE
TMC
   34    36     1     0     0
SMALL
No Charge or Current Charge


@<TRIPOS>ATOM
      1 O16          1.5210    -0.5920    -4.3740 oh         1 TMC      -0.636000
      2 O18         -0.3620     1.9060    -3.2530 oh         1 TMC      -0.629000
      3 O9          -2.6540    -0.0480     2.0860 o          1 TMC      -0.560000
      4 O7           1.1190     0.0270     4.4910 o          1 TMC      -0.528000
      5 N8          -0.6820    -0.1580     0.8620 n          1 TMC      -0.306000
      6 N5          -0.7240    -0.0200     3.2120 ns         1 TMC      -0.466500
      7 C1           0.0200    -0.3870    -2.4500 cx         1 TMC      -0.112000
      8 C10         -0.1230     1.1160    -2.0920 c5         1 TMC       0.203300
      9 C14         -1.3310     1.1980    -1.1020 c5         1 TMC      -0.144400
     10 C17         -1.4420    -0.2130    -0.4350 c5         1 TMC       0.151700
     11 C13         -0.7370    -1.1750    -1.4110 cx         1 TMC      -0.162700
     12 C15         -1.2620    -1.1080    -2.8340 cx         1 TMC      -0.071400
     13 C12          1.3640    -0.8880    -2.9830 c3         1 TMC       0.207600
     14 C11         -1.4340    -0.0750     2.0560 c          1 TMC       0.612000
     15 C6           0.6220    -0.0280     3.3770 c          1 TMC       0.587200
     16 C4           1.3860    -0.1060     2.1130 cc         1 TMC      -0.271400
     17 C2           0.7190    -0.1670     0.9080 cd         1 TMC      -0.007400
     18 C3           2.8910    -0.1140     2.2460 c3         1 TMC      -0.018900
     19 H16          2.4010    -0.9370    -4.6380 ho         1 TMC       0.440000
     20 H5          -1.2700     0.0360     4.0560 hn         1 TMC       0.343500
     21 H10          0.7850     1.4730    -1.5880 h1         1 TMC       0.032700
     22 H142        -2.2590     1.4160    -1.6430 hc         1 TMC       0.071200
     23 H141        -1.2150     2.0060    -0.3710 hc         1 TMC       0.071200
     24 H17         -2.4930    -0.4970    -0.2810 h1         1 TMC       0.102700
     25 H13         -0.3540    -2.1320    -1.0630 hc         1 TMC       0.099700
     26 H152        -2.1490    -0.5180    -3.0510 hc         1 TMC       0.085200
     27 H151        -1.1710    -2.0030    -3.4450 hc         1 TMC       0.085200
     28 H122         2.1740    -0.4280    -2.4030 h1         1 TMC       0.015700
     29 H121         1.4290    -1.9740    -2.8290 h1         1 TMC       0.015700
     30 H2           1.2240    -0.2250    -0.0480 h4         1 TMC       0.208000
     31 H33          3.2480     0.7990     2.7380 hc         1 TMC       0.045700
     32 H32          3.2310    -0.9730     2.8360 hc         1 TMC       0.045700
     33 H31          3.3780    -0.1730     1.2650 hc         1 TMC       0.045700
     34 H18         -0.4010     2.8400    -2.9540 ho         1 TMC       0.443000
@<TRIPOS>BOND
     1     1    13 1   
     2     1    19 1   
     3     2     8 1   
     4     2    34 1   
     5     3    14 2   
     6     4    15 2   
     7     5    10 1   
     8     5    14 1   
     9     5    17 1   
    10     6    14 1   
    11     6    15 1   
    12     6    20 1   
    13     7     8 1   
    14     7    11 1   
    15     7    12 1   
    16     7    13 1   
    17     8     9 1   
    18     8    21 1   
    19     9    10 1   
    20     9    22 1   
    21     9    23 1   
    22    10    11 1   
    23    10    24 1   
    24    11    12 1   
    25    11    25 1   
    26    12    26 1   
    27    12    27 1   
    28    13    28 1   
    29    13    29 1   
    30    15    16 1   
    31    16    17 2   
    32    16    18 1   
    33    17    30 1   
    34    18    31 1   
    35    18    32 1   
    36    18    33 1   
@<TRIPOS>SUBSTRUCTURE
     1 TMC         1 TEMP              0 ****  ****    0 ROOT
