@<TRIPOS>MOLECULE
TMD
   34    33     1     0     0
SMALL
No Charge or Current Charge


@<TRIPOS>ATOM
      1 N            5.4180    34.7600    19.8570 n7         1 TMD      -0.842400
      2 CN           4.8910    36.1400    19.9310 c3         1 TMD       0.174100
      3 CA           6.6980    34.5190    19.0590 c3         1 TMD       0.050500
      4 C            8.0560    35.1120    19.6300 c          1 TMD       0.739000
      5 O            8.0410    35.9820    20.4960 o          1 TMD      -0.727000
      6 OXT          9.1010    34.5880    19.2570 o          1 TMD      -0.727000
      7 CB           6.5760    34.8330    17.5220 c3         1 TMD       0.154300
      8 CZ           6.2390    34.5280    12.9140 c3         1 TMD      -0.077400
      9 CH           7.4250    34.1160    12.0200 c3         1 TMD      -0.087100
     10 OG2          6.5620    36.2520    17.2920 oh         1 TMD      -0.639000
     11 CG1          5.3530    34.1710    16.7970 c3         1 TMD      -0.100700
     12 H            4.6810    34.1750    19.4510 hn         1 TMD       0.360000
     13 HN1          4.0250    36.1760    20.6050 h1         1 TMD       0.016367
     14 HN2          5.6410    36.8440    20.3130 h1         1 TMD       0.016367
     15 HN3          4.5550    36.4900    18.9470 h1         1 TMD       0.016367
     16 HA           6.8750    33.4370    19.1120 h1         1 TMD       0.035700
     17 HB           7.4800    34.4170    17.0570 h1         1 TMD       0.048700
     18 HE2          7.3510    34.6040    14.7660 hc         1 TMD       0.044200
     19 HE3          6.5770    33.0500    14.4550 hc         1 TMD       0.044200
     20 HZ2          5.3250    34.0590    12.5290 hc         1 TMD       0.029700
     21 HZ3          6.0980    35.6140    12.8400 hc         1 TMD       0.029700
     22 HH1          7.2420    34.4150    10.9810 hc         1 TMD       0.027367
     23 HH2          8.3510    34.5980    12.3580 hc         1 TMD       0.027367
     24 HH3          7.5700    33.0300    12.0450 hc         1 TMD       0.027367
     25 HG2          6.3450    36.3770    16.3450 ho         1 TMD       0.411000
     26 HG1          4.4420    34.5580    17.2710 hc         1 TMD       0.045700
     27 CD1          5.2350    34.5510    15.2880 c3         1 TMD      -0.070400
     28 CD2          5.3200    32.6300    16.9820 c3         1 TMD      -0.080100
     29 HD13         5.0790    35.6330    15.1930 hc         1 TMD       0.027200
     30 CE           6.4320    34.1350    14.3950 c3         1 TMD      -0.079400
     31 HD12         4.3250    34.0900    14.8840 hc         1 TMD       0.027200
     32 HD21         4.5060    32.1850    16.3970 hc         1 TMD       0.025700
     33 HD22         6.2630    32.1720    16.6610 hc         1 TMD       0.025700
     34 HD23         5.1500    32.3610    18.0310 hc         1 TMD       0.025700
@<TRIPOS>BOND
     1     1     2 1   
     2     1     3 1   
     3     1    12 1   
     4     2    13 1   
     5     2    14 1   
     6     2    15 1   
     7     3     4 1   
     8     3     7 1   
     9     3    16 1   
    10     4     5 1   
    11     4     6 1   
    12     7    10 1   
    13     7    11 1   
    14     7    17 1   
    15     8     9 1   
    16     8    20 1   
    17     8    21 1   
    18     8    30 1   
    19     9    22 1   
    20     9    23 1   
    21     9    24 1   
    22    10    25 1   
    23    11    26 1   
    24    11    27 1   
    25    11    28 1   
    26    18    30 1   
    27    19    30 1   
    28    27    29 1   
    29    27    30 1   
    30    27    31 1   
    31    28    32 1   
    32    28    33 1   
    33    28    34 1   
@<TRIPOS>SUBSTRUCTURE
     1 TMD         1 TEMP              0 ****  ****    0 ROOT
