@<TRIPOS>MOLECULE
TMD
   34    33     1     0     0
SMALL
bcc


@<TRIPOS>ATOM
      1 N            5.4400    34.7860    19.7920 n7         1 TMD      -0.787200
      2 CN           4.8780    36.1200    19.7190 c3         1 TMD       0.174100
      3 CA           6.6480    34.5010    19.0370 c3         1 TMD       0.050500
      4 C            7.9360    35.1200    19.6540 c          1 TMD       0.949600
      5 O            7.8310    35.8150    20.6810 o          1 TMD      -0.832300
      6 OXT          8.9970    34.8220    19.0670 o          1 TMD      -0.832300
      7 CB           6.6100    34.7740    17.5210 c3         1 TMD       0.131100
      8 CZ           6.1740    34.5320    12.9840 c3         1 TMD      -0.077400
      9 CH           7.3260    34.1410    12.0690 c3         1 TMD      -0.087100
     10 OG2          6.7020    36.1750    17.3280 oh         1 TMD      -0.576800
     11 CG1          5.3810    34.1710    16.8240 c3         1 TMD      -0.100700
     12 H            4.7250    34.1140    19.5440 hn         1 TMD       0.304800
     13 HN1          4.0690    36.2040    20.4490 h1         1 TMD       0.016367
     14 HN2          5.6350    36.8530    19.9860 h1         1 TMD       0.016367
     15 HN3          4.4660    36.4070    18.7440 h1         1 TMD       0.016367
     16 HA           6.7920    33.4180    19.1340 h1         1 TMD       0.035700
     17 HB           7.4980    34.2820    17.1010 h1         1 TMD       0.048700
     18 HE2          7.3570    34.6480    14.7680 hc         1 TMD       0.044200
     19 HE3          6.5990    33.0930    14.5180 hc         1 TMD       0.044200
     20 HZ2          5.2550    34.0440    12.6470 hc         1 TMD       0.029700
     21 HZ3          5.9910    35.6080    12.9040 hc         1 TMD       0.029700
     22 HH1          7.1240    34.4100    11.0320 hc         1 TMD       0.027367
     23 HH2          8.2510    34.6390    12.3650 hc         1 TMD       0.027367
     24 HH3          7.5070    33.0650    12.1020 hc         1 TMD       0.027367
     25 HG2          6.9370    36.3480    16.4130 ho         1 TMD       0.372000
     26 HG1          4.4800    34.5580    17.3140 hc         1 TMD       0.045700
     27 CD1          5.2690    34.5820    15.3490 c3         1 TMD      -0.070400
     28 CD2          5.3690    32.6480    16.9650 c3         1 TMD      -0.080100
     29 HD13         5.1250    35.6650    15.2770 hc         1 TMD       0.027200
     30 CE           6.4260    34.1710    14.4440 c3         1 TMD      -0.079400
     31 HD12         4.3460    34.1450    14.9530 hc         1 TMD       0.027200
     32 HD21         4.5870    32.2080    16.3440 hc         1 TMD       0.025700
     33 HD22         6.3190    32.2040    16.6600 hc         1 TMD       0.025700
     34 HD23         5.1790    32.3310    17.9910 hc         1 TMD       0.025700
@<TRIPOS>BOND
     1     1     2 1   
     2     1     3 1   
     3     1    12 1   
     4     2    13 1   
     5     2    14 1   
     6     2    15 1   
     7     3     4 1   
     8     3     7 1   
     9     3    16 1   
    10     4     5 1   
    11     4     6 1   
    12     7    10 1   
    13     7    11 1   
    14     7    17 1   
    15     8     9 1   
    16     8    20 1   
    17     8    21 1   
    18     8    30 1   
    19     9    22 1   
    20     9    23 1   
    21     9    24 1   
    22    10    25 1   
    23    11    26 1   
    24    11    27 1   
    25    11    28 1   
    26    18    30 1   
    27    19    30 1   
    28    27    29 1   
    29    27    30 1   
    30    27    31 1   
    31    28    32 1   
    32    28    33 1   
    33    28    34 1   
@<TRIPOS>SUBSTRUCTURE
     1 TMD         1 TEMP              0 ****  ****    0 ROOT
