@<TRIPOS>MOLECULE
TME
   11    10     1     0     0
SMALL
No Charge or Current Charge


@<TRIPOS>ATOM
      1 C1           1.2970    -0.2860     0.0070 c3         1 TME      -0.089600
      2 C2           0.0120     0.5640     0.0120 c3         1 TME      -0.075400
      3 C3          -1.2740    -0.2860     0.0040 c3         1 TME      -0.089600
      4 H11          1.3380    -0.9320     0.8930 hc         1 TME       0.030700
      5 H12          1.3400    -0.9200    -0.8870 hc         1 TME       0.030700
      6 H13          2.1830     0.3610     0.0130 hc         1 TME       0.030700
      7 H21          0.0110     1.2100     0.8980 hc         1 TME       0.035700
      8 H22          0.0130     1.2230    -0.8650 hc         1 TME       0.035700
      9 H31         -1.3170    -0.9320     0.8890 hc         1 TME       0.030700
     10 H32         -2.1590     0.3610     0.0080 hc         1 TME       0.030700
     11 H33         -1.3150    -0.9190    -0.8900 hc         1 TME       0.030700
@<TRIPOS>BOND
     1     1     2 1   
     2     1     4 1   
     3     1     5 1   
     4     1     6 1   
     5     2     3 1   
     6     2     7 1   
     7     2     8 1   
     8     3     9 1   
     9     3    10 1   
    10     3    11 1   
@<TRIPOS>SUBSTRUCTURE
     1 TME         1 TEMP              0 ****  ****    0 ROOT
