@<TRIPOS>MOLECULE
TME
   11    10     1     0     0
SMALL
bcc


@<TRIPOS>ATOM
      1 C1           1.2760    -0.2790     0.0070 c3         1 TME      -0.089600
      2 C2           0.0120     0.5700     0.0120 c3         1 TME      -0.075400
      3 C3          -1.2530    -0.2790     0.0040 c3         1 TME      -0.089600
      4 H11          1.3160    -0.9270     0.8850 hc         1 TME       0.030700
      5 H12          1.3150    -0.9200    -0.8750 hc         1 TME       0.030700
      6 H13          2.1770     0.3360     0.0090 hc         1 TME       0.030700
      7 H21          0.0100     1.2200     0.8910 hc         1 TME       0.035700
      8 H22          0.0130     1.2340    -0.8560 hc         1 TME       0.035700
      9 H31         -1.2940    -0.9300     0.8790 hc         1 TME       0.030700
     10 H32         -2.1540     0.3360     0.0070 hc         1 TME       0.030700
     11 H33         -1.2910    -0.9160    -0.8820 hc         1 TME       0.030700
@<TRIPOS>BOND
     1     1     2 1   
     2     1     4 1   
     3     1     5 1   
     4     1     6 1   
     5     2     3 1   
     6     2     7 1   
     7     2     8 1   
     8     3     9 1   
     9     3    10 1   
    10     3    11 1   
@<TRIPOS>SUBSTRUCTURE
     1 TME         1 TEMP              0 ****  ****    0 ROOT
