@<TRIPOS>MOLECULE
TMF
   52    55     1     0     0
SMALL
No Charge or Current Charge


@<TRIPOS>ATOM
      1 N1           0.9550     0.5410     7.1760 na         1 TMF      -0.766200
      2 C2          -0.0940     1.1730     7.7210 cc         1 TMF       0.897100
      3 NA2          0.1140     1.8830     8.7900 nv         1 TMF      -1.068200
      4 N3          -1.2640     1.1210     7.2060 nd         1 TMF      -0.793100
      5 C4          -1.5050     0.3890     6.0540 c          1 TMF       0.736700
      6 O4          -2.6430     0.3810     5.6040 o          1 TMF      -0.550100
      7 C4A         -0.3540    -0.3330     5.4440 cc         1 TMF      -0.057200
      8 N5          -0.5240    -1.0960     4.2720 nh         1 TMF      -0.605400
      9 C6           0.5590    -2.1120     4.0310 c5         1 TMF       0.085200
     10 C7           1.9530    -1.6190     4.4940 c2         1 TMF       0.441200
     11 N8           2.0230    -0.7810     5.5100 nf         1 TMF      -0.587300
     12 C8A          0.8890    -0.2290     6.0390 cd         1 TMF       0.242600
     13 C9           0.5620    -2.2310     2.4870 c5         1 TMF       0.224800
     14 N10          0.0480    -0.9030     2.0510 nh         1 TMF      -0.839400
     15 C11          0.3040     0.5470    -1.9580 ca         1 TMF      -0.137600
     16 C12         -0.1590     1.3750    -0.9140 ca         1 TMF      -0.039500
     17 C13         -0.2420     0.8950     0.4040 ca         1 TMF      -0.193000
     18 C14          0.1330    -0.4240     0.7200 ca         1 TMF       0.298000
     19 C15          0.5950    -1.2520    -0.3210 ca         1 TMF      -0.193000
     20 C16          0.6800    -0.7790    -1.6430 ca         1 TMF      -0.039500
     21 O            0.0430     2.2470    -3.6330 o          1 TMF      -0.645100
     22 N            0.8600     0.2420    -4.3420 ns         1 TMF      -0.416900
     23 CA           0.9840     0.5540    -5.7880 c3         1 TMF      -0.058300
     24 CB          -0.2160     0.0120    -6.6120 c3         1 TMF      -0.050400
     25 CG          -1.5910     0.6200    -6.2320 c3         1 TMF      -0.198400
     26 CD          -2.6820     0.0960    -7.1850 c          1 TMF       0.708000
     27 OE1         -3.2580    -0.9400    -6.8920 o          1 TMF      -0.761500
     28 OE2         -2.8910     0.7120    -8.2190 o          1 TMF      -0.761500
     29 CT           2.3360     0.0050    -6.3370 c          1 TMF       0.719000
     30 O1           3.0800     0.7810    -6.9200 o          1 TMF      -0.743500
     31 O2           2.6420    -1.1530    -6.0840 o          1 TMF      -0.743500
     32 CP1         -0.8080    -0.2640     3.0800 c5         1 TMF       0.485000
     33 HN1          1.8370     0.6220     7.6510 hn         1 TMF       0.507000
     34 HN21        -0.6970     2.4430     9.0170 hn         1 TMF       0.502000
     35 HN22         0.9830     2.3970     8.8010 hn         1 TMF       0.502000
     36 H6           0.3250    -3.0790     4.4960 h1         1 TMF       0.083700
     37 H7           2.8690    -2.0240     4.0690 h4         1 TMF       0.041800
     38 H91          1.5660    -2.4500     2.0960 h1         1 TMF       0.056200
     39 H92         -0.1150    -3.0330     2.1600 h1         1 TMF       0.056200
     40 H12         -0.4560     2.4020    -1.1200 ha         1 TMF       0.132000
     41 H13         -0.5970     1.5710     1.1760 ha         1 TMF       0.098000
     42 H15          0.8870    -2.2790    -0.1240 ha         1 TMF       0.098000
     43 H16          1.0400    -1.4630    -2.4080 ha         1 TMF       0.132000
     44 HN           1.1500    -0.6780    -4.0380 hn         1 TMF       0.296500
     45 HA           1.0170     1.6440    -5.9080 h1         1 TMF       0.061700
     46 HB1         -0.0240     0.2160    -7.6730 hc         1 TMF       0.050200
     47 HB2         -0.2620    -1.0790    -6.5090 hc         1 TMF       0.050200
     48 HG1         -1.7960     0.2950    -5.2040 hc         1 TMF       0.009700
     49 HG2         -1.4780     1.7060    -6.3380 hc         1 TMF       0.009700
     50 HCP1        -0.5120     0.7810     3.2480 h2         1 TMF       0.063200
     51 HCP2        -1.8700    -0.3220     2.8050 h2         1 TMF       0.063200
     52 C            0.3810     1.0990    -3.3690 c          1 TMF       0.597700
@<TRIPOS>BOND
     1     1     2 1   
     2     1    12 1   
     3     1    33 1   
     4     2     3 1   
     5     2     4 2   
     6     3    34 1   
     7     3    35 1   
     8     4     5 1   
     9     5     6 2   
    10     5     7 1   
    11     7     8 1   
    12     7    12 2   
    13     8     9 1   
    14     8    32 1   
    15     9    10 1   
    16     9    13 1   
    17     9    36 1   
    18    10    11 2   
    19    10    37 1   
    20    11    12 1   
    21    13    14 1   
    22    13    38 1   
    23    13    39 1   
    24    14    18 1   
    25    14    32 1   
    26    15    16 ar  
    27    15    20 ar  
    28    15    52 1   
    29    16    17 ar  
    30    16    40 1   
    31    17    18 ar  
    32    17    41 1   
    33    18    19 ar  
    34    19    20 ar  
    35    19    42 1   
    36    20    43 1   
    37    21    52 2   
    38    22    23 1   
    39    22    44 1   
    40    22    52 1   
    41    23    24 1   
    42    23    29 1   
    43    23    45 1   
    44    24    25 1   
    45    24    46 1   
    46    24    47 1   
    47    25    26 1   
    48    25    48 1   
    49    25    49 1   
    50    26    27 1   
    51    26    28 1   
    52    29    30 1   
    53    29    31 1   
    54    32    50 1   
    55    32    51 1   
@<TRIPOS>SUBSTRUCTURE
     1 TMF         1 TEMP              0 ****  ****    0 ROOT
