@<TRIPOS>MOLECULE
TMF
   52    55     1     0     0
SMALL
abcg2


@<TRIPOS>ATOM
      1 N1           1.0950    -0.2390     7.3770 na         1 TMF      -0.766200
      2 C2           0.3680     0.7290     7.9850 cc         1 TMF       0.897100
      3 NA2          0.6560     1.0030     9.2620 nv         1 TMF      -1.068200
      4 N3          -0.5900     1.3850     7.3830 nd         1 TMF      -0.793100
      5 C4          -0.9490     1.0880     6.1030 c          1 TMF       0.736700
      6 O4          -1.8110     1.7400     5.5140 o          1 TMF      -0.550100
      7 C4A         -0.2450    -0.0140     5.4550 cc         1 TMF      -0.057200
      8 N5          -0.5900    -0.4540     4.1840 nh         1 TMF      -0.605400
      9 C6          -0.1340    -1.7950     3.8590 c5         1 TMF       0.085200
     10 C7           1.2680    -1.9980     4.3800 c2         1 TMF       0.441200
     11 N8           1.6740    -1.4660     5.4640 nf         1 TMF      -0.587300
     12 C8A          0.8020    -0.5970     6.0870 cd         1 TMF       0.242600
     13 C9          -0.2370    -1.8300     2.3440 c5         1 TMF       0.224800
     14 N10          0.0190    -0.4540     1.9830 nh         1 TMF      -0.839400
     15 C11          0.1010     0.8710    -1.9950 ca         1 TMF      -0.137600
     16 C12          0.0880     1.7730    -0.9310 ca         1 TMF      -0.039500
     17 C13          0.0530     1.3440     0.3780 ca         1 TMF      -0.193000
     18 C14          0.0340    -0.0290     0.6840 ca         1 TMF       0.298000
     19 C15          0.0440    -0.9390    -0.3860 ca         1 TMF      -0.193000
     20 C16          0.0760    -0.4910    -1.6920 ca         1 TMF      -0.039500
     21 O           -0.2120     2.5750    -3.6010 o          1 TMF      -0.645100
     22 N            0.3810     0.5370    -4.3640 ns         1 TMF      -0.416900
     23 CA           0.5000     0.9580    -5.7350 c3         1 TMF      -0.058300
     24 CB           0.2430    -0.2110    -6.6800 c3         1 TMF      -0.050400
     25 CG          -1.1510    -0.7960    -6.5270 c3         1 TMF      -0.198400
     26 CD          -1.5210    -1.9320    -7.4950 c          1 TMF       0.708000
     27 OE1         -0.7040    -2.2480    -8.3840 o          1 TMF      -0.761500
     28 OE2         -2.7040    -2.3300    -7.4330 o          1 TMF      -0.761500
     29 CT           1.8650     1.5910    -6.0270 c          1 TMF       0.719000
     30 O1           1.9730     2.1260    -7.1550 o          1 TMF      -0.743500
     31 O2           2.7540     1.4190    -5.2200 o          1 TMF      -0.743500
     32 CP1         -0.3990     0.4400     3.0480 c5         1 TMF       0.485000
     33 HN1          1.8510    -0.7110     7.8550 hn         1 TMF       0.507000
     34 HN21         0.1920     1.7810     9.7000 hn         1 TMF       0.502000
     35 HN22         1.4600     0.6210     9.7240 hn         1 TMF       0.502000
     36 H6          -0.7870    -2.5500     4.3140 h1         1 TMF       0.083700
     37 H7           1.9700    -2.6030     3.8140 h4         1 TMF       0.041800
     38 H91          0.5000    -2.5050     1.9070 h1         1 TMF       0.056200
     39 H92         -1.2300    -2.1700     2.0290 h1         1 TMF       0.056200
     40 H12          0.0920     2.8370    -1.1290 ha         1 TMF       0.132000
     41 H13          0.0460     2.0870     1.1630 ha         1 TMF       0.098000
     42 H15          0.0070    -2.0050    -0.2080 ha         1 TMF       0.098000
     43 H16          0.0490    -1.2350    -2.4770 ha         1 TMF       0.132000
     44 HN           0.8040    -0.3410    -4.1210 hn         1 TMF       0.296500
     45 HA          -0.2610     1.7190    -5.9120 h1         1 TMF       0.061700
     46 HB1          0.3920     0.1420    -7.7000 hc         1 TMF       0.050200
     47 HB2          0.9970    -0.9890    -6.5160 hc         1 TMF       0.050200
     48 HG1         -1.2920    -1.1750    -5.5100 hc         1 TMF       0.009700
     49 HG2         -1.8950     0.0030    -6.6310 hc         1 TMF       0.009700
     50 HCP1         0.3670     1.2000     3.2430 h2         1 TMF       0.063200
     51 HCP2        -1.3310     0.9580     2.8000 h2         1 TMF       0.063200
     52 C            0.0990     1.4090    -3.3790 c          1 TMF       0.597700
@<TRIPOS>BOND
     1     1     2 1   
     2     1    12 1   
     3     1    33 1   
     4     2     3 1   
     5     2     4 2   
     6     3    34 1   
     7     3    35 1   
     8     4     5 1   
     9     5     6 2   
    10     5     7 1   
    11     7     8 1   
    12     7    12 2   
    13     8     9 1   
    14     8    32 1   
    15     9    10 1   
    16     9    13 1   
    17     9    36 1   
    18    10    11 2   
    19    10    37 1   
    20    11    12 1   
    21    13    14 1   
    22    13    38 1   
    23    13    39 1   
    24    14    18 1   
    25    14    32 1   
    26    15    16 ar  
    27    15    20 ar  
    28    15    52 1   
    29    16    17 ar  
    30    16    40 1   
    31    17    18 ar  
    32    17    41 1   
    33    18    19 ar  
    34    19    20 ar  
    35    19    42 1   
    36    20    43 1   
    37    21    52 2   
    38    22    23 1   
    39    22    44 1   
    40    22    52 1   
    41    23    24 1   
    42    23    29 1   
    43    23    45 1   
    44    24    25 1   
    45    24    46 1   
    46    24    47 1   
    47    25    26 1   
    48    25    48 1   
    49    25    49 1   
    50    26    27 1   
    51    26    28 1   
    52    29    30 1   
    53    29    31 1   
    54    32    50 1   
    55    32    51 1   
@<TRIPOS>SUBSTRUCTURE
     1 TMF         1 TEMP              0 ****  ****    0 ROOT
