@<TRIPOS>MOLECULE
TMG
   21    23     1     0     0
SMALL
No Charge or Current Charge


@<TRIPOS>ATOM
      1 C2           1.8990     0.7040     0.0240 ca         1 TMG       0.067400
      2 N7           0.5880     1.1500     0.0110 nc         1 TMG      -0.573100
      3 C9          -0.1080    -0.0110     0.0050 cd         1 TMG       0.378800
      4 C10         -1.5600    -0.1260    -0.0090 cd         1 TMG       0.255700
      5 C14         -2.3330     1.0160    -0.0160 cc         1 TMG      -0.217000
      6 S13         -4.0280     0.6180    -0.0320 ss         1 TMG      -0.000400
      7 C12         -3.5710    -1.0680    -0.0270 cc         1 TMG       0.411300
      8 N11         -2.2670    -1.3290    -0.0150 nd         1 TMG      -0.646000
      9 N8           0.6960    -1.1610     0.0130 na         1 TMG      -0.291600
     10 C6           1.9670    -0.6610     0.0250 ca         1 TMG      -0.077200
     11 C5           3.1830    -1.3580     0.0370 ca         1 TMG      -0.115000
     12 C4           4.3730    -0.6010     0.0480 ca         1 TMG      -0.093000
     13 C3           4.3170     0.8120     0.0470 ca         1 TMG      -0.136000
     14 C1           3.0710     1.4770     0.0350 ca         1 TMG      -0.049000
     15 H14         -2.0180     2.0510    -0.0140 h4         1 TMG       0.183000
     16 H12         -4.3480    -1.8220    -0.0340 h5         1 TMG       0.056100
     17 HN8          0.3780    -2.1220     0.0110 hn         1 TMG       0.374000
     18 H5           3.2110    -2.4450     0.0370 ha         1 TMG       0.118000
     19 H4           5.3370    -1.1070     0.0570 ha         1 TMG       0.112000
     20 H3           5.2380     1.3910     0.0550 ha         1 TMG       0.113000
     21 H1           3.0180     2.5620     0.0340 ha         1 TMG       0.127000
@<TRIPOS>BOND
     1     1     2 1   
     2     1    10 ar  
     3     1    14 ar  
     4     2     3 2   
     5     3     4 1   
     6     3     9 1   
     7     4     5 2   
     8     4     8 1   
     9     5     6 1   
    10     5    15 1   
    11     6     7 1   
    12     7     8 2   
    13     7    16 1   
    14     9    10 1   
    15     9    17 1   
    16    10    11 ar  
    17    11    12 ar  
    18    11    18 1   
    19    12    13 ar  
    20    12    19 1   
    21    13    14 ar  
    22    13    20 1   
    23    14    21 1   
@<TRIPOS>SUBSTRUCTURE
     1 TMG         1 TEMP              0 ****  ****    0 ROOT
