@<TRIPOS>MOLECULE
TMG
   21    23     1     0     0
SMALL
bcc


@<TRIPOS>ATOM
      1 C2           1.9070     0.7260     0.0240 ca         1 TMG       0.067400
      2 N7           0.6010     1.1470     0.0110 nc         1 TMG      -0.573100
      3 C9          -0.1080     0.0490     0.0050 cd         1 TMG       0.378800
      4 C10         -1.5570    -0.0210    -0.0090 cd         1 TMG       0.321000
      5 C14         -2.3980     1.0530    -0.0150 cc         1 TMG      -0.155400
      6 S13         -4.0140     0.5100    -0.0320 ss         1 TMG      -0.145300
      7 C12         -3.4530    -1.1150    -0.0270 cc         1 TMG       0.411300
      8 N11         -2.1680    -1.2430    -0.0150 nd         1 TMG      -0.646000
      9 N8           0.6520    -1.0760     0.0120 na         1 TMG      -0.241300
     10 C6           1.9600    -0.6800     0.0250 ca         1 TMG      -0.077200
     11 C5           3.1590    -1.3840     0.0360 ca         1 TMG      -0.133000
     12 C4           4.3200    -0.6320     0.0470 ca         1 TMG      -0.111000
     13 C3           4.2870     0.7720     0.0460 ca         1 TMG      -0.154000
     14 C1           3.0910     1.4650     0.0340 ca         1 TMG      -0.067000
     15 H14         -2.1450     2.1010    -0.0130 h4         1 TMG       0.201000
     16 H12         -4.1460    -1.9450    -0.0340 h5         1 TMG       0.056100
     17 HN8          0.3000    -2.0220     0.0130 hn         1 TMG       0.323700
     18 H5           3.1870    -2.4660     0.0370 ha         1 TMG       0.136000
     19 H4           5.2770    -1.1370     0.0570 ha         1 TMG       0.130000
     20 H3           5.2200     1.3210     0.0550 ha         1 TMG       0.131000
     21 H1           3.0690     2.5470     0.0330 ha         1 TMG       0.145000
@<TRIPOS>BOND
     1     1     2 1   
     2     1    10 ar  
     3     1    14 ar  
     4     2     3 2   
     5     3     4 1   
     6     3     9 1   
     7     4     5 2   
     8     4     8 1   
     9     5     6 1   
    10     5    15 1   
    11     6     7 1   
    12     7     8 2   
    13     7    16 1   
    14     9    10 1   
    15     9    17 1   
    16    10    11 ar  
    17    11    12 ar  
    18    11    18 1   
    19    12    13 ar  
    20    12    19 1   
    21    13    14 ar  
    22    13    20 1   
    23    14    21 1   
@<TRIPOS>SUBSTRUCTURE
     1 TMG         1 TEMP              0 ****  ****    0 ROOT
