@<TRIPOS>MOLECULE
TMH
   26    27     1     0     0
SMALL
abcg2


@<TRIPOS>ATOM
      1 C3          -1.5140     0.9620     0.4190 c2         1 TMH      -0.225200
      2 C2          -1.4390    -0.2430    -0.1480 c2         1 TMH      -0.111400
      3 C1          -0.0970    -0.6440    -0.7160 cy         1 TMH      -0.037500
      4 C6           0.4330     0.5620    -1.5250 cy         1 TMH      -0.088400
      5 C5           0.9020     1.1260    -0.1670 cy         1 TMH      -0.072700
      6 C4          -0.2820     1.8210     0.5070 c6         1 TMH      -0.034200
      7 C7           1.0360    -0.3470     0.3180 cy         1 TMH      -0.057000
      8 C8           2.3650    -0.9740    -0.0990 c3         1 TMH      -0.075600
      9 C9           0.8090    -0.6640     1.7870 c3         1 TMH      -0.075600
     10 C10         -2.5790    -1.1990    -0.2650 c3         1 TMH      -0.046900
     11 H3          -2.4430     1.3330     0.8370 ha         1 TMH       0.175000
     12 H1          -0.1160    -1.6310    -1.1840 hc         1 TMH       0.067700
     13 H61          1.2580     0.3150    -2.1910 hc         1 TMH       0.051700
     14 H62         -0.3040     1.1420    -2.0840 hc         1 TMH       0.051700
     15 H5           1.7980     1.7520    -0.1450 hc         1 TMH       0.062700
     16 H41         -0.4600     2.7930     0.0330 hc         1 TMH       0.046700
     17 H42         -0.0510     2.0440     1.5560 hc         1 TMH       0.046700
     18 H81          2.6050    -0.8350    -1.1530 hc         1 TMH       0.034033
     19 H82          3.1870    -0.5470     0.4820 hc         1 TMH       0.034033
     20 H83          2.3550    -2.0490     0.0910 hc         1 TMH       0.034033
     21 H91          0.7930    -1.7460     1.9430 hc         1 TMH       0.034033
     22 H92          1.6260    -0.2620     2.3910 hc         1 TMH       0.034033
     23 H93         -0.1240    -0.2630     2.1780 hc         1 TMH       0.034033
     24 H101        -3.4930    -0.8040     0.1810 hc         1 TMH       0.039033
     25 H102        -2.7880    -1.4390    -1.3110 hc         1 TMH       0.039033
     26 H103        -2.3430    -2.1460     0.2270 hc         1 TMH       0.039033
@<TRIPOS>BOND
     1     1     2 2   
     2     1     6 1   
     3     1    11 1   
     4     2     3 1   
     5     2    10 1   
     6     3     4 1   
     7     3     7 1   
     8     3    12 1   
     9     4     5 1   
    10     4    13 1   
    11     4    14 1   
    12     5     6 1   
    13     5     7 1   
    14     5    15 1   
    15     6    16 1   
    16     6    17 1   
    17     7     8 1   
    18     7     9 1   
    19     8    18 1   
    20     8    19 1   
    21     8    20 1   
    22     9    21 1   
    23     9    22 1   
    24     9    23 1   
    25    10    24 1   
    26    10    25 1   
    27    10    26 1   
@<TRIPOS>SUBSTRUCTURE
     1 TMH         1 TEMP              0 ****  ****    0 ROOT
