@<TRIPOS>MOLECULE
TMH
   26    27     1     0     0
SMALL
No Charge or Current Charge


@<TRIPOS>ATOM
      1 C3          -1.5710     0.9860     0.4260 c2         1 TMH      -0.225200
      2 C2          -1.5010    -0.2320    -0.1430 c2         1 TMH      -0.111400
      3 C1          -0.1310    -0.6090    -0.7100 cy         1 TMH      -0.037500
      4 C6           0.4700     0.5700    -1.5630 cy         1 TMH      -0.088400
      5 C5           0.8880     1.1620    -0.1650 cy         1 TMH      -0.072700
      6 C4          -0.3330     1.8820     0.5090 c6         1 TMH      -0.034200
      7 C7           1.0820    -0.3520     0.2850 cy         1 TMH      -0.057000
      8 C8           2.4410    -1.0180    -0.0780 c3         1 TMH      -0.075600
      9 C9           0.8650    -0.7000     1.7830 c3         1 TMH      -0.075600
     10 C10         -2.6440    -1.2180    -0.2550 c3         1 TMH      -0.046900
     11 H3          -2.4960     1.3640     0.8630 ha         1 TMH       0.175000
     12 H1          -0.1350    -1.5880    -1.2030 hc         1 TMH       0.067700
     13 H61          1.2900     0.3060    -2.2380 hc         1 TMH       0.051700
     14 H62         -0.2510     1.1600    -2.1390 hc         1 TMH       0.051700
     15 H5           1.7830     1.7940    -0.1500 hc         1 TMH       0.062700
     16 H41         -0.5330     2.8360     0.0030 hc         1 TMH       0.046700
     17 H42         -0.1070     2.1190     1.5570 hc         1 TMH       0.046700
     18 H81          2.7440    -0.8580    -1.1170 hc         1 TMH       0.034033
     19 H82          3.2510    -0.6260     0.5500 hc         1 TMH       0.034033
     20 H83          2.4000    -2.1040     0.0750 hc         1 TMH       0.034033
     21 H91          0.8510    -1.7860     1.9370 hc         1 TMH       0.034033
     22 H92          1.6690    -0.2860     2.4040 hc         1 TMH       0.034033
     23 H93         -0.0760    -0.3150     2.1860 hc         1 TMH       0.034033
     24 H101        -3.5630    -0.8210     0.1920 hc         1 TMH       0.039033
     25 H102        -2.8570    -1.4520    -1.3050 hc         1 TMH       0.039033
     26 H103        -2.4030    -2.1570     0.2570 hc         1 TMH       0.039033
@<TRIPOS>BOND
     1     1     2 2   
     2     1     6 1   
     3     1    11 1   
     4     2     3 1   
     5     2    10 1   
     6     3     4 1   
     7     3     7 1   
     8     3    12 1   
     9     4     5 1   
    10     4    13 1   
    11     4    14 1   
    12     5     6 1   
    13     5     7 1   
    14     5    15 1   
    15     6    16 1   
    16     6    17 1   
    17     7     8 1   
    18     7     9 1   
    19     8    18 1   
    20     8    19 1   
    21     8    20 1   
    22     9    21 1   
    23     9    22 1   
    24     9    23 1   
    25    10    24 1   
    26    10    25 1   
    27    10    26 1   
@<TRIPOS>SUBSTRUCTURE
     1 TMH         1 TEMP              0 ****  ****    0 ROOT
