@<TRIPOS>MOLECULE
TMI
   42    45     1     0     0
SMALL
No Charge or Current Charge


@<TRIPOS>ATOM
      1 CBB         -2.2690    -2.2140     0.9280 ca         1 TMI      -0.094500
      2 CBC         -2.9130    -3.4170     0.5900 ca         1 TMI      -0.110000
      3 CBD         -3.9920    -3.4090    -0.3060 ca         1 TMI      -0.102000
      4 CBE         -4.4290    -2.1960    -0.8620 ca         1 TMI      -0.110000
      5 CBF         -3.7860    -0.9920    -0.5270 ca         1 TMI      -0.094500
      6 CBA         -2.6920    -0.9880     0.3710 ca         1 TMI      -0.112300
      7 CAA         -1.9520     0.3000     0.7750 c3         1 TMI       0.186900
      8 NAB         -2.5060     1.5480     0.2170 na         1 TMI      -0.168500
      9 CAF         -3.2840     2.4720     0.8850 cc         1 TMI      -0.233000
     10 CAE         -3.5450     3.4610    -0.0270 cd         1 TMI       0.226900
     11 NAD         -2.9460     3.1770    -1.2370 nd         1 TMI      -0.678000
     12 CAC         -2.3200     2.0210    -1.0660 cc         1 TMI       0.394400
     13 CCA         -0.4420     0.2110     0.5400 ca         1 TMI      -0.112300
     14 CCB          0.4500     0.7360     1.4940 ca         1 TMI      -0.088000
     15 CCC          1.8380     0.6660     1.2860 ca         1 TMI      -0.105000
     16 CCF          0.0780    -0.3800    -0.6300 ca         1 TMI      -0.088000
     17 CCE          1.4670    -0.4470    -0.8350 ca         1 TMI      -0.105000
     18 CCD          2.3770     0.0730     0.1170 cp         1 TMI      -0.016000
     19 CDA          3.8570    -0.0000    -0.1030 cp         1 TMI      -0.042000
     20 CDB          4.4120     0.1210    -1.4030 ca         1 TMI      -0.096500
     21 CDC          5.8010     0.0530    -1.6110 ca         1 TMI      -0.110500
     22 CDD          6.6660    -0.1390    -0.5220 ca         1 TMI      -0.103000
     23 CDE          6.1410    -0.2630     0.7740 ca         1 TMI      -0.110500
     24 CDF          4.7520    -0.1930     0.9810 ca         1 TMI      -0.096500
     25 HBB         -1.4340    -2.2360     1.6250 ha         1 TMI       0.121000
     26 HBC         -2.5740    -4.3550     1.0250 ha         1 TMI       0.116500
     27 HBD         -4.4910    -4.3400    -0.5680 ha         1 TMI       0.115000
     28 HBE         -5.2680    -2.1880    -1.5540 ha         1 TMI       0.116500
     29 HBF         -4.1540    -0.0700    -0.9700 ha         1 TMI       0.121000
     30 HAA         -2.0900     0.3780     1.8610 h1         1 TMI       0.072700
     31 HAF         -3.5880     2.3650     1.9180 h4         1 TMI       0.156000
     32 HAE         -4.1310     4.3610     0.1210 h4         1 TMI       0.036100
     33 HAC         -1.7380     1.4860    -1.8080 h5         1 TMI       0.060100
     34 HCB          0.0680     1.2060     2.3980 ha         1 TMI       0.121500
     35 HCC          2.5020     1.0920     2.0340 ha         1 TMI       0.120000
     36 HCF         -0.5910    -0.7920    -1.3810 ha         1 TMI       0.121500
     37 HCE          1.8390    -0.9220    -1.7390 ha         1 TMI       0.120000
     38 HDB          3.7620     0.2840    -2.2590 ha         1 TMI       0.114500
     39 HDC          6.2060     0.1520    -2.6150 ha         1 TMI       0.114500
     40 HDD          7.7410    -0.1930    -0.6820 ha         1 TMI       0.114000
     41 HDE          6.8090    -0.4150     1.6190 ha         1 TMI       0.114500
     42 HDF          4.3660    -0.3050     1.9910 ha         1 TMI       0.114500
@<TRIPOS>BOND
     1     1     2 ar  
     2     1     6 ar  
     3     1    25 1   
     4     2     3 ar  
     5     2    26 1   
     6     3     4 ar  
     7     3    27 1   
     8     4     5 ar  
     9     4    28 1   
    10     5     6 ar  
    11     5    29 1   
    12     6     7 1   
    13     7     8 1   
    14     7    13 1   
    15     7    30 1   
    16     8     9 1   
    17     8    12 1   
    18     9    10 2   
    19     9    31 1   
    20    10    11 1   
    21    10    32 1   
    22    11    12 2   
    23    12    33 1   
    24    13    14 ar  
    25    13    16 ar  
    26    14    15 ar  
    27    14    34 1   
    28    15    18 ar  
    29    15    35 1   
    30    16    17 ar  
    31    16    36 1   
    32    17    18 ar  
    33    17    37 1   
    34    18    19 1   
    35    19    20 ar  
    36    19    24 ar  
    37    20    21 ar  
    38    20    38 1   
    39    21    22 ar  
    40    21    39 1   
    41    22    23 ar  
    42    22    40 1   
    43    23    24 ar  
    44    23    41 1   
    45    24    42 1   
@<TRIPOS>SUBSTRUCTURE
     1 TMI         1 TEMP              0 ****  ****    0 ROOT
