@<TRIPOS>MOLECULE
TMI
   42    45     1     0     0
SMALL
bcc


@<TRIPOS>ATOM
      1 CBB         -2.6240    -2.1070     1.1990 ca         1 TMI      -0.112500
      2 CBC         -3.2990    -3.2430     0.7800 ca         1 TMI      -0.128000
      3 CBD         -4.0150    -3.2280    -0.4110 ca         1 TMI      -0.120000
      4 CBE         -4.0480    -2.0710    -1.1760 ca         1 TMI      -0.128000
      5 CBF         -3.3700    -0.9330    -0.7560 ca         1 TMI      -0.112500
      6 CBA         -2.6520    -0.9440     0.4340 ca         1 TMI      -0.112300
      7 CAA         -1.8630     0.2540     0.9180 c3         1 TMI       0.157600
      8 NAB         -2.3960     1.5040     0.3920 na         1 TMI      -0.189900
      9 CAF         -3.5630     2.0880     0.8020 cc         1 TMI      -0.265600
     10 CAE         -3.7320     3.1750    -0.0040 cd         1 TMI       0.292200
     11 NAD         -2.7020     3.2650    -0.8970 nd         1 TMI      -0.678000
     12 CAC         -1.9230     2.2470    -0.6350 cc         1 TMI       0.394400
     13 CCA         -0.3820     0.1460     0.6230 ca         1 TMI      -0.112300
     14 CCB          0.5240     0.7880     1.4620 ca         1 TMI      -0.106000
     15 CCC          1.8840     0.7410     1.2060 ca         1 TMI      -0.123000
     16 CCF          0.1070    -0.5510    -0.4750 ca         1 TMI      -0.106000
     17 CCE          1.4690    -0.5960    -0.7340 ca         1 TMI      -0.123000
     18 CCD          2.3820     0.0490     0.1010 cp         1 TMI      -0.016000
     19 CDA          3.8320    -0.0040    -0.1730 cp         1 TMI      -0.042000
     20 CDB          4.3120     0.0290    -1.4830 ca         1 TMI      -0.114500
     21 CDC          5.6730    -0.0210    -1.7430 ca         1 TMI      -0.128500
     22 CDD          6.5820    -0.1040    -0.6960 ca         1 TMI      -0.121000
     23 CDE          6.1170    -0.1370     0.6120 ca         1 TMI      -0.128500
     24 CDF          4.7550    -0.0860     0.8720 ca         1 TMI      -0.114500
     25 HBB         -2.0690    -2.1230     2.1300 ha         1 TMI       0.139000
     26 HBC         -3.2690    -4.1390     1.3870 ha         1 TMI       0.134500
     27 HBD         -4.5470    -4.1120    -0.7380 ha         1 TMI       0.133000
     28 HBE         -4.6050    -2.0500    -2.1040 ha         1 TMI       0.134500
     29 HBF         -3.4070    -0.0390    -1.3660 ha         1 TMI       0.139000
     30 HAA         -1.9770     0.3090     2.0040 h1         1 TMI       0.072700
     31 HAF         -4.1510     1.6860     1.6110 h4         1 TMI       0.174000
     32 HAE         -4.5340     3.8960     0.0190 h4         1 TMI       0.036100
     33 HAC         -1.0050     2.0110    -1.1500 h5         1 TMI       0.060100
     34 HCB          0.1660     1.3360     2.3250 ha         1 TMI       0.139500
     35 HCC          2.5630     1.2630     1.8690 ha         1 TMI       0.138000
     36 HCF         -0.5700    -1.0780    -1.1360 ha         1 TMI       0.139500
     37 HCE          1.8210    -1.1610    -1.5870 ha         1 TMI       0.138000
     38 HDB          3.6180     0.1160    -2.3100 ha         1 TMI       0.132500
     39 HDC          6.0250     0.0140    -2.7660 ha         1 TMI       0.132500
     40 HDD          7.6440    -0.1420    -0.8960 ha         1 TMI       0.132000
     41 HDE          6.8160    -0.2080     1.4350 ha         1 TMI       0.132500
     42 HDF          4.4070    -0.1310     1.8970 ha         1 TMI       0.132500
@<TRIPOS>BOND
     1     1     2 ar  
     2     1     6 ar  
     3     1    25 1   
     4     2     3 ar  
     5     2    26 1   
     6     3     4 ar  
     7     3    27 1   
     8     4     5 ar  
     9     4    28 1   
    10     5     6 ar  
    11     5    29 1   
    12     6     7 1   
    13     7     8 1   
    14     7    13 1   
    15     7    30 1   
    16     8     9 1   
    17     8    12 1   
    18     9    10 2   
    19     9    31 1   
    20    10    11 1   
    21    10    32 1   
    22    11    12 2   
    23    12    33 1   
    24    13    14 ar  
    25    13    16 ar  
    26    14    15 ar  
    27    14    34 1   
    28    15    18 ar  
    29    15    35 1   
    30    16    17 ar  
    31    16    36 1   
    32    17    18 ar  
    33    17    37 1   
    34    18    19 1   
    35    19    20 ar  
    36    19    24 ar  
    37    20    21 ar  
    38    20    38 1   
    39    21    22 ar  
    40    21    39 1   
    41    22    23 ar  
    42    22    40 1   
    43    23    24 ar  
    44    23    41 1   
    45    24    42 1   
@<TRIPOS>SUBSTRUCTURE
     1 TMI         1 TEMP              0 ****  ****    0 ROOT
