@<TRIPOS>MOLECULE
TMJ
   36    38     1     0     0
SMALL
abcg2


@<TRIPOS>ATOM
      1 C1           0.4380     4.9330     2.1810 c6         1 TMJ      -0.039100
      2 C10         -0.8430    -1.4320     2.2040 ca         1 TMJ       0.229000
      3 C14         -2.6480    -1.1320     4.2750 ca         1 TMJ       0.117000
      4 C13         -3.0310    -1.8100     3.1270 ca         1 TMJ      -0.093500
      5 C15         -1.3730    -0.6060     4.4050 ca         1 TMJ      -0.093500
      6 C12         -2.1210    -1.9660     2.0940 ca         1 TMJ      -0.099500
      7 C11         -0.4760    -0.7490     3.3590 ca         1 TMJ      -0.099500
      8 C6           1.4120     2.9030     1.0670 ca         1 TMJ      -0.134000
      9 C4          -0.9590     2.9540     1.4900 ca         1 TMJ      -0.095300
     10 C2          -0.9040     5.6300     2.3380 c6         1 TMJ       0.157800
     11 C3          -2.1920     3.6470     2.0050 c6         1 TMJ       0.201100
     12 CL1         -3.7810    -0.9470     5.5720 cl         1 TMJ      -0.196000
     13 N2           0.0800    -1.5890     1.1390 nu         1 TMJ      -0.856100
     14 O2           1.0560    -0.8890    -1.0370 o          1 TMJ      -0.528500
     15 O1          -1.4370    -0.7800    -0.6920 o          1 TMJ      -0.528500
     16 C8           0.0570     1.0520     0.4270 ca         1 TMJ      -0.316500
     17 C9          -1.0710     1.6950     0.9110 ca         1 TMJ      -0.003000
     18 C7           1.3120     1.6450     0.5050 ca         1 TMJ      -0.021000
     19 C5           0.2920     3.5700     1.5640 ca         1 TMJ      -0.003300
     20 N1          -1.8410     4.6970     2.9360 n7         1 TMJ      -0.858400
     21 H11A         0.9090     4.8250     3.1630 hc         1 TMJ       0.061200
     22 H12A         1.1140     5.5420     1.5770 hc         1 TMJ       0.061200
     23 H13         -4.0250    -2.2270     3.0410 ha         1 TMJ       0.135500
     24 H15         -1.0790    -0.0810     5.3030 ha         1 TMJ       0.135500
     25 H12         -2.4070    -2.5180     1.2100 ha         1 TMJ       0.134000
     26 H11          0.5160    -0.3230     3.4450 ha         1 TMJ       0.134000
     27 H6           2.3820     3.3820     1.1220 ha         1 TMJ       0.118000
     28 H21         -0.7960     6.4970     2.9890 h1         1 TMJ       0.036700
     29 H22         -1.2440     6.0020     1.3580 h1         1 TMJ       0.036700
     30 H31         -2.7620     4.0190     1.1370 h1         1 TMJ       0.045200
     31 H32         -2.8340     2.9200     2.5080 h1         1 TMJ       0.045200
     32 HN2          1.0500    -1.6270     1.4380 hn         1 TMJ       0.484000
     33 H9          -2.0450     1.2260     0.8440 ha         1 TMJ       0.136000
     34 H7           2.1950     1.1450     0.1300 ha         1 TMJ       0.135000
     35 HN1         -2.6810     5.1830     3.2200 hn         1 TMJ       0.418000
     36 S1          -0.0870    -0.5930    -0.1930 sy         1 TMJ       1.140600
@<TRIPOS>BOND
     1     1    10 1   
     2     1    19 1   
     3     1    21 1   
     4     1    22 1   
     5     2     6 ar  
     6     2     7 ar  
     7     2    13 1   
     8     3     4 ar  
     9     3     5 ar  
    10     3    12 1   
    11     4     6 ar  
    12     4    23 1   
    13     5     7 ar  
    14     5    24 1   
    15     6    25 1   
    16     7    26 1   
    17     8    18 ar  
    18     8    19 ar  
    19     8    27 1   
    20     9    11 1   
    21     9    17 ar  
    22     9    19 ar  
    23    10    20 1   
    24    10    28 1   
    25    10    29 1   
    26    11    20 1   
    27    11    30 1   
    28    11    31 1   
    29    13    32 1   
    30    13    36 1   
    31    14    36 2   
    32    15    36 2   
    33    16    17 ar  
    34    16    18 ar  
    35    16    36 1   
    36    17    33 1   
    37    18    34 1   
    38    20    35 1   
@<TRIPOS>SUBSTRUCTURE
     1 TMJ         1 TEMP              0 ****  ****    0 ROOT
