@<TRIPOS>MOLECULE
TMJ
   36    38     1     0     0
SMALL
No Charge or Current Charge


@<TRIPOS>ATOM
      1 C1           0.1620     5.0880     2.2570 c6         1 TMJ      -0.039100
      2 C10         -0.7180    -1.5980     2.3470 ca         1 TMJ       0.229000
      3 C14         -2.0660    -1.6670     4.8290 ca         1 TMJ       0.117000
      4 C13         -2.6590    -1.0350     3.7260 ca         1 TMJ      -0.093500
      5 C15         -0.8050    -2.2700     4.6970 ca         1 TMJ      -0.093500
      6 C12         -1.9900    -1.0030     2.4880 ca         1 TMJ      -0.099500
      7 C11         -0.1370    -2.2360     3.4590 ca         1 TMJ      -0.099500
      8 C6           1.2230     2.8820     1.5710 ca         1 TMJ      -0.134000
      9 C4          -1.1530     3.2060     1.1270 ca         1 TMJ      -0.095300
     10 C2          -1.0730     5.9660     1.9540 c6         1 TMJ       0.157800
     11 C3          -2.4180     4.0750     1.1570 c6         1 TMJ       0.201100
     12 Cl1         -2.9030    -1.7080     6.3750 cl         1 TMJ      -0.196000
     13 N2          -0.0150    -1.5850     1.1420 nu         1 TMJ      -0.856100
     14 O2           1.0890    -0.8380    -0.9150 o          1 TMJ      -0.528500
     15 O1          -1.4720    -0.8200    -0.7380 o          1 TMJ      -0.528500
     16 C8          -0.0630     1.1050     0.5130 ca         1 TMJ      -0.316500
     17 C9          -1.2160     1.9150     0.5680 ca         1 TMJ      -0.003000
     18 C7           1.1590     1.5930     1.0170 ca         1 TMJ      -0.021000
     19 C5           0.0760     3.6950     1.6260 ca         1 TMJ      -0.003300
     20 N1          -2.3190     5.1910     2.1280 n7         1 TMJ      -0.858400
     21 H11A         0.2620     4.9760     3.3450 hc         1 TMJ       0.061200
     22 H12A         1.0690     5.6050     1.9150 hc         1 TMJ       0.061200
     23 H13         -3.6380    -0.5730     3.8270 ha         1 TMJ       0.135500
     24 H15         -0.3470    -2.7620     5.5520 ha         1 TMJ       0.135500
     25 H12         -2.4720    -0.5180     1.6470 ha         1 TMJ       0.134000
     26 H11          0.8390    -2.7050     3.3680 ha         1 TMJ       0.134000
     27 H6           2.1690     3.2500     1.9630 ha         1 TMJ       0.118000
     28 H21         -1.0770     6.8390     2.6240 h1         1 TMJ       0.036700
     29 H22         -1.0150     6.3400     0.9200 h1         1 TMJ       0.036700
     30 H31         -2.5860     4.4820     0.1490 h1         1 TMJ       0.045200
     31 H32         -3.2890     3.4510     1.4080 h1         1 TMJ       0.045200
     32 HN2          0.9340    -1.9320     1.1420 hn         1 TMJ       0.484000
     33 H9          -2.1640     1.5490     0.1770 ha         1 TMJ       0.136000
     34 H7           2.0560     0.9770     0.9860 ha         1 TMJ       0.135000
     35 HN1         -3.1260     5.8140     1.9920 hn         1 TMJ       0.418000
     36 S1          -0.1440    -0.5520    -0.1790 sy         1 TMJ       1.140600
@<TRIPOS>BOND
     1     1    10 1   
     2     1    19 1   
     3     1    21 1   
     4     1    22 1   
     5     2     6 ar  
     6     2     7 ar  
     7     2    13 1   
     8     3     4 ar  
     9     3     5 ar  
    10     3    12 1   
    11     4     6 ar  
    12     4    23 1   
    13     5     7 ar  
    14     5    24 1   
    15     6    25 1   
    16     7    26 1   
    17     8    18 ar  
    18     8    19 ar  
    19     8    27 1   
    20     9    11 1   
    21     9    17 ar  
    22     9    19 ar  
    23    10    20 1   
    24    10    28 1   
    25    10    29 1   
    26    11    20 1   
    27    11    30 1   
    28    11    31 1   
    29    13    32 1   
    30    13    36 1   
    31    14    36 2   
    32    15    36 2   
    33    16    17 ar  
    34    16    18 ar  
    35    16    36 1   
    36    17    33 1   
    37    18    34 1   
    38    20    35 1   
@<TRIPOS>SUBSTRUCTURE
     1 TMJ         1 TEMP              0 ****  ****    0 ROOT
