@<TRIPOS>MOLECULE
TMK
   58    60     1     0     0
SMALL
No Charge or Current Charge


@<TRIPOS>ATOM
      1 C1          34.7280   -21.0650    21.6350 c3         1 TMK      -0.116100
      2 C2          34.1370   -22.3690    22.2000 c3         1 TMK       0.135000
      3 C4          31.6410   -22.4460    22.0500 c          1 TMK       0.583000
      4 C8          32.4330   -21.8110    24.0360 cc         1 TMK       0.376900
      5 C11         29.2420   -22.2990    22.6310 ca         1 TMK       0.541900
      6 O14         26.5500   -24.3030    23.8310 os         1 TMK      -0.482300
      7 C15         27.0520   -24.8530    25.0750 c3         1 TMK       0.125300
      8 C17         26.8720   -23.7750    26.1730 c3         1 TMK      -0.116100
      9 C18         26.2790   -26.1720    25.3690 c3         1 TMK       0.288000
     10 C23         27.2960   -21.6880    21.3360 ca         1 TMK      -0.027000
     11 C24         28.6580   -21.5210    21.6100 ca         1 TMK       0.089000
     12 C30         22.3600   -24.5210    21.3080 ca         1 TMK      -0.143300
     13 C31         23.1620   -24.8150    20.0400 c3         1 TMK      -0.038800
     14 C32         20.9870   -24.8390    21.3310 ca         1 TMK       0.384900
     15 C34         20.7600   -24.1890    23.5410 ca         1 TMK       0.601300
     16 C36         18.5720   -24.3660    24.6540 c3         1 TMK       0.160900
     17 C37         22.1280   -23.8360    23.6190 ca         1 TMK       0.010000
     18 N3          32.7810   -22.1920    22.7530 n          1 TMK      -0.325300
     19 N6          30.6300   -22.1850    22.9590 n          1 TMK      -0.175300
     20 N7          31.1310   -21.7910    24.2090 n2         1 TMK      -0.453300
     21 C9          33.4270   -21.4770    25.1410 c3         1 TMK       0.145300
     22 O10         33.9450   -20.1310    25.0480 oh         1 TMK      -0.654000
     23 N12         28.5410   -23.1990    23.3560 nb         1 TMK      -0.755000
     24 C13         27.2260   -23.3540    23.1010 ca         1 TMK       0.626300
     25 F19         26.4720   -27.0740    24.3790 f          1 TMK      -0.105333
     26 F20         26.7000   -26.7360    26.5250 f          1 TMK      -0.105333
     27 F21         24.9460   -25.9540    25.4740 f          1 TMK      -0.105333
     28 C22         26.5490   -22.6260    22.0920 ca         1 TMK      -0.203600
     29 F25         29.3790   -20.6100    20.9120 f          1 TMK      -0.143000
     30 C26         25.0760   -22.7850    21.7810 c          1 TMK       0.634700
     31 O27         24.5690   -22.1540    20.8600 o          1 TMK      -0.583100
     32 N28         24.3140   -23.6300    22.5700 ns         1 TMK      -0.148000
     33 C29         22.9430   -23.9820    22.4800 ca         1 TMK       0.037000
     34 N33         20.1970   -24.6780    22.4130 nb         1 TMK      -0.750000
     35 Cl38        22.8140   -23.1960    25.1250 cl         1 TMK      -0.175000
     36 H1          35.7300   -21.2460    21.2290 hc         1 TMK       0.054700
     37 H2          34.0950   -20.6750    20.8290 hc         1 TMK       0.054700
     38 H3          34.8060   -20.3000    22.4150 hc         1 TMK       0.054700
     39 H4          34.1050   -23.1230    21.4030 h1         1 TMK       0.059700
     40 H5          34.8000   -22.7560    22.9840 h1         1 TMK       0.059700
     41 H6          28.1170   -25.1140    24.9940 h1         1 TMK       0.107700
     42 H7          27.1910   -24.1590    27.1490 hc         1 TMK       0.066700
     43 H8          27.4750   -22.8860    25.9540 hc         1 TMK       0.066700
     44 H9          25.8220   -23.4670    26.2520 hc         1 TMK       0.066700
     45 H10         26.8350   -21.0910    20.5510 ha         1 TMK       0.173000
     46 H11         23.2000   -23.9380    19.3830 hc         1 TMK       0.051700
     47 H12         24.1910   -25.1180    20.2670 hc         1 TMK       0.051700
     48 H13         22.7100   -25.6320    19.4650 hc         1 TMK       0.051700
     49 H14         20.5030   -25.2550    20.4470 h4         1 TMK       0.025100
     50 H15         18.1250   -24.1650    25.6360 h1         1 TMK       0.050033
     51 H16         18.0290   -23.7730    23.9070 h1         1 TMK       0.050033
     52 H17         18.4280   -25.4300    24.4280 h1         1 TMK       0.050033
     53 H18         32.9220   -21.6180    26.1060 h1         1 TMK       0.055200
     54 H19         34.2470   -22.2060    25.1070 h1         1 TMK       0.055200
     55 H20         34.5370   -19.9930    25.8220 ho         1 TMK       0.453000
     56 H21         24.8040   -24.0470    23.3500 hn         1 TMK       0.185000
     57 O5          31.5400   -22.8240    20.8910 o          1 TMK      -0.522000
     58 O35         19.9730   -24.0260    24.6630 os         1 TMK      -0.453300
@<TRIPOS>BOND
     1     1     2 1   
     2     1    36 1   
     3     1    37 1   
     4     1    38 1   
     5     2    18 1   
     6     2    39 1   
     7     2    40 1   
     8     3    18 1   
     9     3    19 1   
    10     3    57 2   
    11     4    18 1   
    12     4    20 2   
    13     4    21 1   
    14     5    11 ar  
    15     5    19 1   
    16     5    23 ar  
    17     6     7 1   
    18     6    24 1   
    19     7     8 1   
    20     7     9 1   
    21     7    41 1   
    22     8    42 1   
    23     8    43 1   
    24     8    44 1   
    25     9    25 1   
    26     9    26 1   
    27     9    27 1   
    28    10    11 ar  
    29    10    28 ar  
    30    10    45 1   
    31    11    29 1   
    32    12    13 1   
    33    12    14 ar  
    34    12    33 ar  
    35    13    46 1   
    36    13    47 1   
    37    13    48 1   
    38    14    34 ar  
    39    14    49 1   
    40    15    17 ar  
    41    15    34 ar  
    42    15    58 1   
    43    16    50 1   
    44    16    51 1   
    45    16    52 1   
    46    16    58 1   
    47    17    33 ar  
    48    17    35 1   
    49    19    20 1   
    50    21    22 1   
    51    21    53 1   
    52    21    54 1   
    53    22    55 1   
    54    23    24 ar  
    55    24    28 ar  
    56    28    30 1   
    57    30    31 2   
    58    30    32 1   
    59    32    33 1   
    60    32    56 1   
@<TRIPOS>SUBSTRUCTURE
     1 TMK         1 TEMP              0 ****  ****    0 ROOT
