@<TRIPOS>MOLECULE
TMK
   58    60     1     0     0
SMALL
abcg2


@<TRIPOS>ATOM
      1 C1          34.4610   -20.6500    21.7530 c3         1 TMK      -0.116100
      2 C2          34.0880   -22.0320    22.2690 c3         1 TMK       0.135000
      3 C4          31.6230   -22.2830    21.9330 c          1 TMK       0.583000
      4 C8          32.2620   -21.9810    24.0540 cc         1 TMK       0.376900
      5 C11         29.2010   -22.4420    22.5260 ca         1 TMK       0.541900
      6 O14         26.5840   -24.2810    23.9850 os         1 TMK      -0.482300
      7 C15         27.2800   -24.8200    25.1190 c3         1 TMK       0.125300
      8 C17         27.1970   -23.8820    26.3060 c3         1 TMK      -0.116100
      9 C18         26.6080   -26.1640    25.3750 c3         1 TMK       0.288000
     10 C23         27.2370   -22.0430    21.2240 ca         1 TMK      -0.027000
     11 C24         28.5750   -21.8120    21.4570 ca         1 TMK       0.089000
     12 C30         22.3520   -24.5870    21.3230 ca         1 TMK      -0.143300
     13 C31         23.1470   -25.0210    20.1290 c3         1 TMK      -0.038800
     14 C32         20.9770   -24.7550    21.3610 ca         1 TMK       0.384900
     15 C34         20.7600   -23.9690    23.4970 ca         1 TMK       0.601300
     16 C36         18.5970   -23.8660    24.4770 c3         1 TMK       0.160900
     17 C37         22.1450   -23.7500    23.5770 ca         1 TMK       0.010000
     18 N3          32.7130   -22.0900    22.7610 n          1 TMK      -0.325300
     19 N6          30.5530   -22.2350    22.8180 n          1 TMK      -0.175300
     20 N7          30.9700   -22.0750    24.1290 n2         1 TMK      -0.453300
     21 C9          33.1360   -21.7940    25.2420 c3         1 TMK       0.145300
     22 O10         33.7670   -20.5170    25.1520 oh         1 TMK      -0.654000
     23 N12         28.5180   -23.2440    23.3350 nb         1 TMK      -0.755000
     24 C13         27.2370   -23.4590    23.1300 ca         1 TMK       0.626300
     25 F19         26.6800   -26.9710    24.3000 f          1 TMK      -0.105333
     26 F20         27.2140   -26.7980    26.3970 f          1 TMK      -0.105333
     27 F21         25.3030   -26.0420    25.6900 f          1 TMK      -0.105333
     28 C22         26.5130   -22.8830    22.0640 ca         1 TMK      -0.203600
     29 F25         29.2410   -20.9350    20.6890 f          1 TMK      -0.143000
     30 C26         25.0520   -23.0340    21.7600 c          1 TMK       0.634700
     31 O27         24.5490   -22.4290    20.8210 o          1 TMK      -0.583100
     32 N28         24.3340   -23.8520    22.5780 ns         1 TMK      -0.148000
     33 C29         22.9450   -24.0450    22.4790 ca         1 TMK       0.037000
     34 N33         20.1980   -24.4530    22.4070 nb         1 TMK      -0.750000
     35 CL38        22.8410   -23.1090    25.0360 cl         1 TMK      -0.175000
     36 H1          35.4860   -20.6640    21.3810 hc         1 TMK       0.054700
     37 H2          33.8030   -20.3510    20.9350 hc         1 TMK       0.054700
     38 H3          34.3890   -19.9120    22.5510 hc         1 TMK       0.054700
     39 H4          34.1700   -22.7780    21.4780 h1         1 TMK       0.059700
     40 H5          34.7410   -22.3370    23.0840 h1         1 TMK       0.059700
     41 H6          28.3130   -25.0300    24.8460 h1         1 TMK       0.107700
     42 H7          27.6930   -24.3230    27.1700 hc         1 TMK       0.066700
     43 H8          27.7010   -22.9500    26.0580 hc         1 TMK       0.066700
     44 H9          26.1570   -23.6700    26.5550 hc         1 TMK       0.066700
     45 H10         26.7350   -21.5470    20.4060 ha         1 TMK       0.173000
     46 H11         23.4430   -24.1660    19.5190 hc         1 TMK       0.051700
     47 H12         24.0630   -25.5310    20.4340 hc         1 TMK       0.051700
     48 H13         22.5590   -25.7020    19.5140 hc         1 TMK       0.051700
     49 H14         20.4710   -25.1760    20.4990 h4         1 TMK       0.025100
     50 H15         18.2020   -23.5570    25.4410 h1         1 TMK       0.050033
     51 H16         18.1720   -23.2580    23.6790 h1         1 TMK       0.050033
     52 H17         18.3720   -24.9160    24.2930 h1         1 TMK       0.050033
     53 H18         32.5060   -21.8710    26.1320 h1         1 TMK       0.055200
     54 H19         33.8820   -22.5940    25.2740 h1         1 TMK       0.055200
     55 H20         34.5520   -20.5280    25.7130 ho         1 TMK       0.453000
     56 H21         24.7850   -24.1550    23.4310 hn         1 TMK       0.185000
     57 O5          31.6150   -22.4870    20.7310 o          1 TMK      -0.522000
     58 O35         20.0150   -23.6600    24.5700 os         1 TMK      -0.453300
@<TRIPOS>BOND
     1     1     2 1   
     2     1    36 1   
     3     1    37 1   
     4     1    38 1   
     5     2    18 1   
     6     2    39 1   
     7     2    40 1   
     8     3    18 1   
     9     3    19 1   
    10     3    57 2   
    11     4    18 1   
    12     4    20 2   
    13     4    21 1   
    14     5    11 ar  
    15     5    19 1   
    16     5    23 ar  
    17     6     7 1   
    18     6    24 1   
    19     7     8 1   
    20     7     9 1   
    21     7    41 1   
    22     8    42 1   
    23     8    43 1   
    24     8    44 1   
    25     9    25 1   
    26     9    26 1   
    27     9    27 1   
    28    10    11 ar  
    29    10    28 ar  
    30    10    45 1   
    31    11    29 1   
    32    12    13 1   
    33    12    14 ar  
    34    12    33 ar  
    35    13    46 1   
    36    13    47 1   
    37    13    48 1   
    38    14    34 ar  
    39    14    49 1   
    40    15    17 ar  
    41    15    34 ar  
    42    15    58 1   
    43    16    50 1   
    44    16    51 1   
    45    16    52 1   
    46    16    58 1   
    47    17    33 ar  
    48    17    35 1   
    49    19    20 1   
    50    21    22 1   
    51    21    53 1   
    52    21    54 1   
    53    22    55 1   
    54    23    24 ar  
    55    24    28 ar  
    56    28    30 1   
    57    30    31 2   
    58    30    32 1   
    59    32    33 1   
    60    32    56 1   
@<TRIPOS>SUBSTRUCTURE
     1 TMK         1 TEMP              0 ****  ****    0 ROOT
