@<TRIPOS>MOLECULE
TMM
   18    18     1     0     0
SMALL
abcg2


@<TRIPOS>ATOM
      1 C1           0.9980    -0.0000     0.9740 ca         1 TMM      -0.214933
      2 C2           1.3460     0.0020    -0.3730 ca         1 TMM      -0.067000
      3 C3           0.3780    -0.0030    -1.3740 ca         1 TMM      -0.214933
      4 C4          -0.9630    -0.0100    -1.0030 ca         1 TMM      -0.067000
      5 C5          -1.3450    -0.0130     0.3360 ca         1 TMM      -0.214933
      6 C6          -0.3530    -0.0080     1.3120 ca         1 TMM      -0.067000
      7 C1A          2.0700     0.0050     2.0560 c          1 TMM       0.717600
      8 C3A          0.7820     0.0020    -2.8420 c          1 TMM       0.717600
      9 C5A         -2.8170    -0.0210     0.7270 c          1 TMM       0.717600
     10 O1A          3.2570     0.0110     1.6730 o          1 TMM      -0.775000
     11 O2A          1.6760     0.0040     3.2390 o          1 TMM      -0.775000
     12 O3A          2.0040     0.0120    -3.0900 o          1 TMM      -0.775000
     13 O4A         -0.1410    -0.0050    -3.6810 o          1 TMM      -0.775000
     14 O5A         -3.6480    -0.0260    -0.2030 o          1 TMM      -0.775000
     15 O6A         -3.0750    -0.0230     1.9470 o          1 TMM      -0.775000
     16 H2           2.3910     0.0080    -0.6510 ha         1 TMM       0.115000
     17 H4          -1.7250    -0.0140    -1.7710 ha         1 TMM       0.115000
     18 H6          -0.6390    -0.0100     2.3550 ha         1 TMM       0.115000
@<TRIPOS>BOND
     1     1     2 ar  
     2     1     6 ar  
     3     1     7 1   
     4     2     3 ar  
     5     2    16 1   
     6     3     4 ar  
     7     3     8 1   
     8     4     5 ar  
     9     4    17 1   
    10     5     6 ar  
    11     5     9 1   
    12     6    18 1   
    13     7    10 1   
    14     7    11 1   
    15     8    12 1   
    16     8    13 1   
    17     9    14 1   
    18     9    15 1   
@<TRIPOS>SUBSTRUCTURE
     1 TMM         1 TEMP              0 ****  ****    0 ROOT
