@<TRIPOS>MOLECULE
TMM
   18    18     1     0     0
SMALL
No Charge or Current Charge


@<TRIPOS>ATOM
      1 C1           1.0130    -0.0000     0.9900 ca         1 TMM      -0.214933
      2 C2           1.3690     0.0030    -0.3780 ca         1 TMM      -0.067000
      3 C3           0.3850    -0.0020    -1.3940 ca         1 TMM      -0.214933
      4 C4          -0.9780    -0.0100    -1.0180 ca         1 TMM      -0.067000
      5 C5          -1.3660    -0.0130     0.3420 ca         1 TMM      -0.214933
      6 C6          -0.3580    -0.0080     1.3340 ca         1 TMM      -0.067000
      7 C1A          2.0850     0.0050     2.0710 c          1 TMM       0.717600
      8 C3A          0.7850     0.0010    -2.8620 c          1 TMM       0.717600
      9 C5A         -2.8370    -0.0220     0.7300 c          1 TMM       0.717600
     10 O1A          3.2600     0.0110     1.7350 o          1 TMM      -0.775000
     11 O2A          1.7390     0.0040     3.2430 o          1 TMM      -0.775000
     12 O3A          1.9730     0.0110    -3.1490 o          1 TMM      -0.775000
     13 O4A         -0.0930    -0.0050    -3.7120 o          1 TMM      -0.775000
     14 O5A         -3.6800    -0.0260    -0.1560 o          1 TMM      -0.775000
     15 O6A         -3.1340    -0.0230     1.9150 o          1 TMM      -0.775000
     16 H2           2.4210     0.0090    -0.6550 ha         1 TMM       0.115000
     17 H4          -1.7440    -0.0140    -1.7900 ha         1 TMM       0.115000
     18 H6          -0.6440    -0.0100     2.3840 ha         1 TMM       0.115000
@<TRIPOS>BOND
     1     1     2 ar  
     2     1     6 ar  
     3     1     7 1   
     4     2     3 ar  
     5     2    16 1   
     6     3     4 ar  
     7     3     8 1   
     8     4     5 ar  
     9     4    17 1   
    10     5     6 ar  
    11     5     9 1   
    12     6    18 1   
    13     7    10 1   
    14     7    11 1   
    15     8    12 1   
    16     8    13 1   
    17     9    14 1   
    18     9    15 1   
@<TRIPOS>SUBSTRUCTURE
     1 TMM         1 TEMP              0 ****  ****    0 ROOT
