@<TRIPOS>MOLECULE
TMO
   14    13     1     0     0
SMALL
No Charge or Current Charge


@<TRIPOS>ATOM
      1 CAA        -81.4320    -3.0930     6.3300 c3         1 TMO       0.082900
      2 NAC        -80.4810    -3.2880     5.1460 n4         1 TMO      -0.158000
      3 CAD        -79.2100    -3.9860     5.6380 c3         1 TMO       0.082900
      4 CAB        -81.1630    -4.1740     4.1000 c3         1 TMO       0.082900
      5 OAE        -80.1600    -2.0600     4.5890 o          1 TMO      -0.659000
      6 HAA        -82.3420    -2.6050     5.9770 hx         1 TMO       0.063033
      7 HAAA       -81.6730    -4.0680     6.7560 hx         1 TMO       0.063033
      8 HAAB       -80.9410    -2.4700     7.0800 hx         1 TMO       0.063033
      9 HAD        -78.5370    -4.1350     4.7910 hx         1 TMO       0.063033
     10 HADA       -78.7290    -3.3590     6.3910 hx         1 TMO       0.063033
     11 HADB       -79.4800    -4.9500     6.0730 hx         1 TMO       0.063033
     12 HAB        -80.4810    -4.3220     3.2610 hx         1 TMO       0.063033
     13 HABA       -81.4080    -5.1360     4.5550 hx         1 TMO       0.063033
     14 HABB       -82.0750    -3.6810     3.7570 hx         1 TMO       0.063033
@<TRIPOS>BOND
     1     1     2 1   
     2     1     6 1   
     3     1     7 1   
     4     1     8 1   
     5     2     3 1   
     6     2     4 1   
     7     2     5 1   
     8     3     9 1   
     9     3    10 1   
    10     3    11 1   
    11     4    12 1   
    12     4    13 1   
    13     4    14 1   
@<TRIPOS>SUBSTRUCTURE
     1 TMO         1 TEMP              0 ****  ****    0 ROOT
