@<TRIPOS>MOLECULE
TMO
   14    13     1     0     0
SMALL
abcg2


@<TRIPOS>ATOM
      1 CAA        -81.4150    -3.1150     6.3120 c3         1 TMO       0.082900
      2 NAC        -80.4870    -3.3120     5.1570 n4         1 TMO      -0.158000
      3 CAD        -79.2420    -3.9880     5.6340 c3         1 TMO       0.082900
      4 CAB        -81.1530    -4.1720     4.1300 c3         1 TMO       0.082900
      5 OAE        -80.1690    -2.0880     4.6020 o          1 TMO      -0.659000
      6 HAA        -82.3040    -2.6180     5.9340 hx         1 TMO       0.063033
      7 HAAA       -81.6710    -4.0760     6.7580 hx         1 TMO       0.063033
      8 HAAB       -80.9060    -2.4800     7.0320 hx         1 TMO       0.063033
      9 HAD        -78.5870    -4.1050     4.7750 hx         1 TMO       0.063033
     10 HADA       -78.7820    -3.3370     6.3720 hx         1 TMO       0.063033
     11 HADB       -79.4820    -4.9560     6.0700 hx         1 TMO       0.063033
     12 HAB        -80.4550    -4.2980     3.3080 hx         1 TMO       0.063033
     13 HABA       -81.4160    -5.1370     4.5630 hx         1 TMO       0.063033
     14 HABB       -82.0420    -3.6460     3.7940 hx         1 TMO       0.063033
@<TRIPOS>BOND
     1     1     2 1   
     2     1     6 1   
     3     1     7 1   
     4     1     8 1   
     5     2     3 1   
     6     2     4 1   
     7     2     5 1   
     8     3     9 1   
     9     3    10 1   
    10     3    11 1   
    11     4    12 1   
    12     4    13 1   
    13     4    14 1   
@<TRIPOS>SUBSTRUCTURE
     1 TMO         1 TEMP              0 ****  ****    0 ROOT
