@<TRIPOS>MOLECULE
TMQ
   51    53     1     0     0
SMALL
abcg2


@<TRIPOS>ATOM
      1 N1           5.7060    -0.2220    -0.7300 na         1 TMQ      -0.431200
      2 C2           6.2480     0.4470     0.3000 ca         1 TMQ       0.772000
      3 N3           5.4950     1.0380     1.2090 nb         1 TMQ      -0.873000
      4 C4           4.1750     0.9360     1.1500 ca         1 TMQ       0.764900
      5 C3A          4.3560    -0.4650    -0.7970 ca         1 TMQ       0.083700
      6 C4A          3.5100     0.0490     0.2000 ca         1 TMQ      -0.183000
      7 C5           2.1380    -0.3020     0.1920 ca         1 TMQ       0.020700
      8 C6           1.6470    -1.0560    -0.8740 ca         1 TMQ      -0.119300
      9 C7           2.5100    -1.4890    -1.8830 ca         1 TMQ      -0.003000
     10 C8           3.8570    -1.2260    -1.8460 ca         1 TMQ      -0.154000
     11 C9           0.1890    -1.4170    -0.9790 c3         1 TMQ       0.275100
     12 N10         -0.6200    -0.2380    -1.1740 nu         1 TMQ      -0.989200
     13 C11         -1.9100    -0.1190    -0.7320 ca         1 TMQ       0.381000
     14 C12         -2.4950     1.1530    -0.6740 ca         1 TMQ      -0.311000
     15 C13         -3.8040     1.2950    -0.2330 ca         1 TMQ       0.203100
     16 C14         -4.5540     0.1790     0.1540 ca         1 TMQ      -0.011900
     17 C15         -3.9630    -1.0830     0.0980 ca         1 TMQ       0.203100
     18 C16         -2.6530    -1.2420    -0.3530 ca         1 TMQ      -0.311000
     19 C17          1.2090     0.0600     1.3190 c3         1 TMQ      -0.085800
     20 O18         -4.4400     2.4760    -0.1390 os         1 TMQ      -0.314600
     21 O19         -5.8450     0.3250     0.5720 os         1 TMQ      -0.315100
     22 O20         -4.7450    -2.1040     0.4930 os         1 TMQ      -0.314600
     23 C21         -3.7450     3.6500    -0.5080 c3         1 TMQ       0.145400
     24 C22         -5.9800     0.5240     1.9700 c3         1 TMQ       0.144900
     25 C23         -4.2110    -3.4130     0.4860 c3         1 TMQ       0.145400
     26 N24          7.5640     0.5360     0.3920 nv         1 TMQ      -0.599500
     27 N25          3.5130     1.7110     1.9900 nv         1 TMQ      -1.005900
     28 HN           6.3010    -0.6180    -1.4450 hn         1 TMQ       0.373000
     29 H7           2.1090    -2.0640    -2.7080 ha         1 TMQ       0.150000
     30 H8           4.5200    -1.6020    -2.6150 ha         1 TMQ       0.145000
     31 H91         -0.1280    -1.9400    -0.0700 h1         1 TMQ       0.060700
     32 H92          0.0560    -2.1340    -1.7960 h1         1 TMQ       0.060700
     33 HN1         -0.1310     0.6190    -1.3700 hn         1 TMQ       0.479000
     34 H12         -1.9090     2.0140    -0.9670 ha         1 TMQ       0.115000
     35 H16         -2.2210    -2.2280    -0.4350 ha         1 TMQ       0.115000
     36 H171         0.8030     1.0690     1.2140 hc         1 TMQ       0.070367
     37 H172         0.3520    -0.6070     1.3520 hc         1 TMQ       0.070367
     38 H173         1.6950    -0.0230     2.2890 hc         1 TMQ       0.070367
     39 H211        -2.8610     3.8150     0.1140 h1         1 TMQ       0.042367
     40 H212        -3.4370     3.6320    -1.5570 h1         1 TMQ       0.042367
     41 H213        -4.4360     4.4760    -0.3600 h1         1 TMQ       0.042367
     42 H221        -5.6110    -0.3320     2.5410 h1         1 TMQ       0.033700
     43 H222        -5.4510     1.4200     2.3060 h1         1 TMQ       0.033700
     44 H223        -7.0420     0.6500     2.1800 h1         1 TMQ       0.033700
     45 H231        -4.9930    -4.0650     0.8680 h1         1 TMQ       0.042367
     46 H232        -3.9420    -3.7430    -0.5210 h1         1 TMQ       0.042367
     47 H233        -3.3330    -3.5010     1.1310 h1         1 TMQ       0.042367
     48 HN21         8.1840     0.1290    -0.2880 hn         1 TMQ       0.378500
     49 HN22         7.9670     1.0800     1.1360 hn         1 TMQ       0.378500
     50 HN51         2.5180     1.8320     1.9710 hn         1 TMQ       0.531500
     51 HN52         4.0400     2.3330     2.5830 hn         1 TMQ       0.531500
@<TRIPOS>BOND
     1     1     2 1   
     2     1     5 2   
     3     1    28 1   
     4     2     3 ar  
     5     2    26 1   
     6     3     4 ar  
     7     4     6 ar  
     8     4    27 1   
     9     5     6 ar  
    10     5    10 ar  
    11     6     7 ar  
    12     7     8 ar  
    13     7    19 1   
    14     8     9 ar  
    15     8    11 1   
    16     9    10 ar  
    17     9    29 1   
    18    10    30 1   
    19    11    12 1   
    20    11    31 1   
    21    11    32 1   
    22    12    13 1   
    23    12    33 1   
    24    13    14 ar  
    25    13    18 ar  
    26    14    15 ar  
    27    14    34 1   
    28    15    16 ar  
    29    15    20 1   
    30    16    17 ar  
    31    16    21 1   
    32    17    18 ar  
    33    17    22 1   
    34    18    35 1   
    35    19    36 1   
    36    19    37 1   
    37    19    38 1   
    38    20    23 1   
    39    21    24 1   
    40    22    25 1   
    41    23    39 1   
    42    23    40 1   
    43    23    41 1   
    44    24    42 1   
    45    24    43 1   
    46    24    44 1   
    47    25    45 1   
    48    25    46 1   
    49    25    47 1   
    50    26    48 1   
    51    26    49 1   
    52    27    50 1   
    53    27    51 1   
@<TRIPOS>SUBSTRUCTURE
     1 TMQ         1 TEMP              0 ****  ****    0 ROOT
