@<TRIPOS>MOLECULE
TMQ
   51    53     1     0     0
SMALL
No Charge or Current Charge


@<TRIPOS>ATOM
      1 N1           5.7090    -0.0540    -1.3040 na         1 TMQ      -0.431200
      2 C2           6.4710     0.4990    -0.3150 ca         1 TMQ       0.772000
      3 N3           6.0750     0.8360     0.8990 nb         1 TMQ      -0.873000
      4 C4           4.8120     0.5780     1.1630 ca         1 TMQ       0.764900
      5 C3A          4.3790    -0.3200    -1.0050 ca         1 TMQ       0.083700
      6 C4A          3.8700    -0.0110     0.2760 ca         1 TMQ      -0.183000
      7 C5           2.5000    -0.3100     0.5790 ca         1 TMQ       0.020700
      8 C6           1.6810    -0.8860    -0.4400 ca         1 TMQ      -0.119300
      9 C7           2.2230    -1.1600    -1.7100 ca         1 TMQ      -0.003000
     10 C8           3.5640    -0.8850    -1.9880 ca         1 TMQ      -0.154000
     11 C9           0.2070    -1.2380    -0.2320 c3         1 TMQ       0.275100
     12 N10         -0.6100    -0.0160    -0.2320 nu         1 TMQ      -0.989200
     13 C11         -1.9870     0.0810    -0.1170 ca         1 TMQ       0.381000
     14 C12         -2.5830     1.3070    -0.3890 ca         1 TMQ      -0.311000
     15 C13         -3.9790     1.4540    -0.2840 ca         1 TMQ       0.203100
     16 C14         -4.7900     0.3600     0.1000 ca         1 TMQ      -0.011900
     17 C15         -4.1670    -0.8950     0.3800 ca         1 TMQ       0.203100
     18 C16         -2.7640    -1.0130     0.2660 ca         1 TMQ      -0.311000
     19 C17          1.9070    -0.0320     1.9710 c3         1 TMQ      -0.085800
     20 O18         -4.5970     2.6650    -0.5520 os         1 TMQ      -0.314600
     21 O19         -6.1630     0.6020     0.1760 os         1 TMQ      -0.315100
     22 O20         -4.9260    -1.9890     0.7610 os         1 TMQ      -0.314600
     23 C21         -3.8660     3.8390    -0.9490 c3         1 TMQ       0.145400
     24 C22         -7.1570    -0.3700     0.5440 c3         1 TMQ       0.144900
     25 C23         -4.3590    -3.2780     1.0560 c3         1 TMQ       0.145400
     26 N24          7.7590     0.7670    -0.5360 nv         1 TMQ      -0.599500
     27 N25          4.6370     1.0360     2.3880 nv         1 TMQ      -1.005900
     28 HN           6.1050    -0.2320    -2.2140 hn         1 TMQ       0.373000
     29 H7           1.6000    -1.5940    -2.4900 ha         1 TMQ       0.150000
     30 H8           3.9630    -1.1120    -2.9740 ha         1 TMQ       0.145000
     31 H91          0.0820    -1.8010     0.7030 h1         1 TMQ       0.060700
     32 H92         -0.1300    -1.9040    -1.0400 h1         1 TMQ       0.060700
     33 HN1         -0.1360     0.8420    -0.5090 hn         1 TMQ       0.479000
     34 H12         -1.9510     2.1380    -0.6820 ha         1 TMQ       0.115000
     35 H16         -2.2700    -1.9520     0.4770 ha         1 TMQ       0.115000
     36 H171         1.8320     1.0450     2.1590 hc         1 TMQ       0.070367
     37 H172         0.9010    -0.4310     2.1190 hc         1 TMQ       0.070367
     38 H173         2.5160    -0.4890     2.7600 hc         1 TMQ       0.070367
     39 H211        -3.1460     4.1310    -0.1750 h1         1 TMQ       0.042367
     40 H212        -3.3250     3.6620    -1.8870 h1         1 TMQ       0.042367
     41 H213        -4.5550     4.6780    -1.1080 h1         1 TMQ       0.042367
     42 H221        -7.1600    -1.2140    -0.1570 h1         1 TMQ       0.033700
     43 H222        -6.9830    -0.7440     1.5610 h1         1 TMQ       0.033700
     44 H223        -8.1550     0.0850     0.5220 h1         1 TMQ       0.033700
     45 H231        -5.1510    -3.9850     1.3330 h1         1 TMQ       0.042367
     46 H232        -3.8340    -3.6840     0.1820 h1         1 TMQ       0.042367
     47 H233        -3.6550    -3.2130     1.8950 h1         1 TMQ       0.042367
     48 HN21         8.2270     0.3030    -1.2980 hn         1 TMQ       0.378500
     49 HN22         8.3040     1.0260     0.2710 hn         1 TMQ       0.378500
     50 HN51         3.7990     1.5820     2.5180 hn         1 TMQ       0.531500
     51 HN52         5.4780     1.5080     2.6870 hn         1 TMQ       0.531500
@<TRIPOS>BOND
     1     1     2 1   
     2     1     5 2   
     3     1    28 1   
     4     2     3 ar  
     5     2    26 1   
     6     3     4 ar  
     7     4     6 ar  
     8     4    27 1   
     9     5     6 ar  
    10     5    10 ar  
    11     6     7 ar  
    12     7     8 ar  
    13     7    19 1   
    14     8     9 ar  
    15     8    11 1   
    16     9    10 ar  
    17     9    29 1   
    18    10    30 1   
    19    11    12 1   
    20    11    31 1   
    21    11    32 1   
    22    12    13 1   
    23    12    33 1   
    24    13    14 ar  
    25    13    18 ar  
    26    14    15 ar  
    27    14    34 1   
    28    15    16 ar  
    29    15    20 1   
    30    16    17 ar  
    31    16    21 1   
    32    17    18 ar  
    33    17    22 1   
    34    18    35 1   
    35    19    36 1   
    36    19    37 1   
    37    19    38 1   
    38    20    23 1   
    39    21    24 1   
    40    22    25 1   
    41    23    39 1   
    42    23    40 1   
    43    23    41 1   
    44    24    42 1   
    45    24    43 1   
    46    24    44 1   
    47    25    45 1   
    48    25    46 1   
    49    25    47 1   
    50    26    48 1   
    51    26    49 1   
    52    27    50 1   
    53    27    51 1   
@<TRIPOS>SUBSTRUCTURE
     1 TMQ         1 TEMP              0 ****  ****    0 ROOT
