@<TRIPOS>MOLECULE
TMR
   25    25     1     0     0
SMALL
abcg2


@<TRIPOS>ATOM
      1 C1          -5.5660     2.3290     4.4610 c6         1 TMR       0.400300
      2 C2          -4.1750     1.8640     4.8430 c6         1 TMR      -0.102400
      3 C3          -4.1050     0.3440     4.8940 c6         1 TMR       0.188300
      4 C4          -5.2470    -0.2070     5.7560 c6         1 TMR       0.009300
      5 C5          -6.6000     0.3950     5.3600 c6         1 TMR       0.203300
      6 C6          -7.7190     0.0090     6.3040 c3         1 TMR      -0.093100
      7 O1          -5.6120     3.7090     4.5320 oh         1 TMR      -0.643000
      8 O3          -4.1800    -0.1370     3.5680 oh         1 TMR      -0.662000
      9 O5          -6.5090     1.8090     5.3740 os         1 TMR      -0.501000
     10 S4          -5.2700    -2.0260     5.6040 ss         1 TMR      -0.451000
     11 H1          -5.8190     1.9720     3.4490 h2         1 TMR       0.033700
     12 H2          -3.9250     2.2660     5.8300 hc         1 TMR       0.071700
     13 H22         -3.4330     2.2430     4.1360 hc         1 TMR       0.071700
     14 H3          -3.1550     0.0480     5.3570 h1         1 TMR       0.044700
     15 H4          -5.0370     0.0330     6.8030 h1         1 TMR       0.080700
     16 H5          -6.8490     0.0490     4.3460 h1         1 TMR       0.054700
     17 H61         -8.6560     0.4770     6.0020 hc         1 TMR       0.047700
     18 H62         -7.4960     0.3170     7.3270 hc         1 TMR       0.047700
     19 H63         -7.8710    -1.0700     6.2980 hc         1 TMR       0.047700
     20 H71         -5.2920    -3.6260     7.3510 h1         1 TMR       0.062367
     21 H72         -4.4510    -2.1630     7.8820 h1         1 TMR       0.062367
     22 H73         -6.2290    -2.2050     7.8270 h1         1 TMR       0.062367
     23 HO1         -6.4140     4.0240     4.1010 ho         1 TMR       0.457000
     24 HO3         -3.9100    -1.0610     3.5650 ho         1 TMR       0.457000
     25 C7          -5.3160    -2.5380     7.3380 c3         1 TMR       0.047900
@<TRIPOS>BOND
     1     1     2 1   
     2     1     7 1   
     3     1     9 1   
     4     1    11 1   
     5     2     3 1   
     6     2    12 1   
     7     2    13 1   
     8     3     4 1   
     9     3     8 1   
    10     3    14 1   
    11     4     5 1   
    12     4    10 1   
    13     4    15 1   
    14     5     6 1   
    15     5     9 1   
    16     5    16 1   
    17     6    17 1   
    18     6    18 1   
    19     6    19 1   
    20     7    23 1   
    21     8    24 1   
    22    10    25 1   
    23    20    25 1   
    24    21    25 1   
    25    22    25 1   
@<TRIPOS>SUBSTRUCTURE
     1 TMR         1 TEMP              0 ****  ****    0 ROOT
