@<TRIPOS>MOLECULE
TMR
   25    25     1     0     0
SMALL
No Charge or Current Charge


@<TRIPOS>ATOM
      1 C1          -5.5360     2.3470     4.3590 c6         1 TMR       0.400300
      2 C2          -4.1260     1.8950     4.7820 c6         1 TMR      -0.102400
      3 C3          -4.0460     0.3530     4.8430 c6         1 TMR       0.188300
      4 C4          -5.2070    -0.2420     5.6920 c6         1 TMR       0.009300
      5 C5          -6.5720     0.3700     5.2460 c6         1 TMR       0.203300
      6 C6          -7.7470    -0.0200     6.1760 c3         1 TMR      -0.093100
      7 O1          -5.6720     3.7420     4.4860 oh         1 TMR      -0.643000
      8 O3          -4.0710    -0.2030     3.5240 oh         1 TMR      -0.662000
      9 O5          -6.5020     1.8120     5.2620 os         1 TMR      -0.501000
     10 S4          -5.1860    -2.1060     5.6430 ss         1 TMR      -0.451000
     11 H1          -5.7610     2.0310     3.3290 h2         1 TMR       0.033700
     12 H2          -3.8860     2.3140     5.7680 hc         1 TMR       0.071700
     13 H22         -3.3770     2.2890     4.0820 hc         1 TMR       0.071700
     14 H3          -3.0960     0.0790     5.3280 h1         1 TMR       0.044700
     15 H4          -5.0330     0.0560     6.7360 h1         1 TMR       0.080700
     16 H5          -6.8130     0.0380     4.2240 h1         1 TMR       0.054700
     17 H61         -8.6720     0.4830     5.8700 hc         1 TMR       0.047700
     18 H62         -7.5400     0.2560     7.2160 hc         1 TMR       0.047700
     19 H63         -7.9380    -1.0990     6.1450 hc         1 TMR       0.047700
     20 H71         -5.3200    -3.5800     7.5960 h1         1 TMR       0.062367
     21 H72         -4.4560    -2.0650     7.9850 h1         1 TMR       0.062367
     22 H73         -6.2400    -2.0720     7.8600 h1         1 TMR       0.062367
     23 HO1         -6.4690     3.8270     5.0490 ho         1 TMR       0.457000
     24 HO3         -4.2570    -1.1600     3.6570 ho         1 TMR       0.457000
     25 C7          -5.3140    -2.4920     7.4500 c3         1 TMR       0.047900
@<TRIPOS>BOND
     1     1     2 1   
     2     1     7 1   
     3     1     9 1   
     4     1    11 1   
     5     2     3 1   
     6     2    12 1   
     7     2    13 1   
     8     3     4 1   
     9     3     8 1   
    10     3    14 1   
    11     4     5 1   
    12     4    10 1   
    13     4    15 1   
    14     5     6 1   
    15     5     9 1   
    16     5    16 1   
    17     6    17 1   
    18     6    18 1   
    19     6    19 1   
    20     7    23 1   
    21     8    24 1   
    22    10    25 1   
    23    20    25 1   
    24    21    25 1   
    25    22    25 1   
@<TRIPOS>SUBSTRUCTURE
     1 TMR         1 TEMP              0 ****  ****    0 ROOT
