@<TRIPOS>MOLECULE
TMS
   52    53     1     0     0
SMALL
No Charge or Current Charge


@<TRIPOS>ATOM
      1 C1          -1.0630    -0.0050     0.6130 ce         1 TMS      -0.154200
      2 O20          2.6380    -0.2810     5.6000 os         1 TMS      -0.323600
      3 C20          3.8760    -0.2870     4.8670 c3         1 TMS       0.145400
      4 O21          0.1640    -0.2710     7.1730 os         1 TMS      -0.328100
      5 C21          1.3180    -0.3300     8.0290 c3         1 TMS       0.148900
      6 O22         -2.2010    -0.1670     5.8980 os         1 TMS      -0.323600
      7 C22         -3.5240    -0.1140     5.3360 c3         1 TMS       0.145400
      8 C2           0.0090    -0.0700     1.4570 cf         1 TMS      -0.145200
      9 C3          -1.0880     0.0480    -0.8790 ca         1 TMS      -0.031800
     10 C4           0.0490    -0.1220     2.9350 ca         1 TMS       0.011200
     11 C5           0.0790    -0.1100    -1.6530 ca         1 TMS      -0.110500
     12 C6          -2.3120     0.2570    -1.5400 ca         1 TMS      -0.110500
     13 C7           1.2940    -0.1770     3.5820 ca         1 TMS      -0.216500
     14 C8          -1.1220    -0.1190     3.7110 ca         1 TMS      -0.216500
     15 C9           0.0240    -0.0560    -3.0570 ca         1 TMS      -0.072500
     16 C10         -2.3720     0.3120    -2.9430 ca         1 TMS      -0.072500
     17 C11          1.3930    -0.2280     4.9930 ca         1 TMS       0.156100
     18 C12         -1.0530    -0.1690     5.1200 ca         1 TMS       0.156100
     19 C13         -1.2060     0.1570    -3.7250 ca         1 TMS      -0.147600
     20 C14          0.1990    -0.2240     5.7770 ca         1 TMS       0.031100
     21 C15         -1.3080     0.2210    -5.2370 c          1 TMS       0.610700
     22 N1          -0.1370     0.0640    -5.9460 ns         1 TMS      -0.500900
     23 C16         -0.0460     0.0970    -7.4060 c3         1 TMS       0.101000
     24 O1          -2.3730     0.4040    -5.8120 o          1 TMS      -0.602100
     25 C17          1.4000    -0.1090    -7.8910 c3         1 TMS      -0.101400
     26 C18          1.5190    -0.0770    -9.4260 c3         1 TMS       0.166600
     27 O2           2.8850    -0.2740    -9.8060 oh         1 TMS      -0.662000
     28 HE2         -2.0580     0.0200     1.0550 ha         1 TMS       0.176000
     29 HGA          4.7250    -0.3330     5.5590 h1         1 TMS       0.042033
     30 HGB          3.9320    -1.1600     4.2030 h1         1 TMS       0.042033
     31 HGC          3.9780     0.6240     4.2650 h1         1 TMS       0.042033
     32 H1A          1.0060    -0.3580     9.0800 h1         1 TMS       0.033367
     33 H1B          1.9080    -1.2350     7.8320 h1         1 TMS       0.033367
     34 H1C          1.9540     0.5540     7.8930 h1         1 TMS       0.033367
     35 HFA         -4.2760    -0.1220     6.1350 h1         1 TMS       0.042033
     36 HFB         -3.6630     0.8030     4.7500 h1         1 TMS       0.042033
     37 HFC         -3.7090    -0.9800     4.6880 h1         1 TMS       0.042033
     38 HE3          0.9980    -0.0840     1.0020 ha         1 TMS       0.173000
     39 HC4          1.0400    -0.2810    -1.1780 ha         1 TMS       0.116000
     40 HC5         -3.2280     0.3810    -0.9660 ha         1 TMS       0.116000
     41 HB6          2.1870    -0.1790     2.9670 ha         1 TMS       0.120500
     42 HB7         -2.0840    -0.0780     3.2160 ha         1 TMS       0.120500
     43 HD8          0.9520    -0.1850    -3.6090 ha         1 TMS       0.125000
     44 HD9         -3.3360     0.4770    -3.4210 ha         1 TMS       0.125000
     45 H1           0.7080    -0.0830    -5.4120 hn         1 TMS       0.315500
     46 HJB         -0.4190     1.0670    -7.7620 h1         1 TMS       0.052200
     47 HJA         -0.6890    -0.6920    -7.8190 h1         1 TMS       0.052200
     48 HKA          1.7720    -1.0720    -7.5200 hc         1 TMS       0.057200
     49 HKB          2.0390     0.6740    -7.4640 hc         1 TMS       0.057200
     50 HLB          1.1560     0.8900    -9.7990 h1         1 TMS       0.020700
     51 HLA          0.8870    -0.8660    -9.8560 h1         1 TMS       0.020700
     52 HO2          2.9150    -0.2470   -10.7890 ho         1 TMS       0.446000
@<TRIPOS>BOND
     1     1     8 2   
     2     1     9 1   
     3     1    28 1   
     4     2     3 1   
     5     2    17 1   
     6     3    29 1   
     7     3    30 1   
     8     3    31 1   
     9     4     5 1   
    10     4    20 1   
    11     5    32 1   
    12     5    33 1   
    13     5    34 1   
    14     6     7 1   
    15     6    18 1   
    16     7    35 1   
    17     7    36 1   
    18     7    37 1   
    19     8    10 1   
    20     8    38 1   
    21     9    11 ar  
    22     9    12 ar  
    23    10    13 ar  
    24    10    14 ar  
    25    11    15 ar  
    26    11    39 1   
    27    12    16 ar  
    28    12    40 1   
    29    13    17 ar  
    30    13    41 1   
    31    14    18 ar  
    32    14    42 1   
    33    15    19 ar  
    34    15    43 1   
    35    16    19 ar  
    36    16    44 1   
    37    17    20 ar  
    38    18    20 ar  
    39    19    21 1   
    40    21    22 1   
    41    21    24 2   
    42    22    23 1   
    43    22    45 1   
    44    23    25 1   
    45    23    46 1   
    46    23    47 1   
    47    25    26 1   
    48    25    48 1   
    49    25    49 1   
    50    26    27 1   
    51    26    50 1   
    52    26    51 1   
    53    27    52 1   
@<TRIPOS>SUBSTRUCTURE
     1 TMS         1 TEMP              0 ****  ****    0 ROOT
