@<TRIPOS>MOLECULE
TMS
   52    53     1     0     0
SMALL
bcc


@<TRIPOS>ATOM
      1 C1          -0.8860     0.0320     0.6410 ce         1 TMS      -0.104200
      2 O20          2.6620     0.3030     5.5870 os         1 TMS      -0.300400
      3 C20          3.8840     0.3120     4.8750 c3         1 TMS       0.122200
      4 O21          0.4080     0.3060     7.0060 os         1 TMS      -0.304900
      5 C21          0.5840    -0.9100     7.7220 c3         1 TMS       0.125700
      6 O22         -1.9560    -0.0070     5.8440 os         1 TMS      -0.300400
      7 C22         -3.2420    -0.1380     5.2710 c3         1 TMS       0.122200
      8 C2           0.1880    -0.1530     1.4200 cf         1 TMS      -0.095200
      9 C3          -0.9180    -0.0340    -0.8170 ca         1 TMS      -0.031800
     10 C4           0.2070    -0.0700     2.8800 ca         1 TMS       0.011200
     11 C5           0.1640    -0.4570    -1.5970 ca         1 TMS      -0.128500
     12 C6          -2.0910     0.3410    -1.4780 ca         1 TMS      -0.128500
     13 C7           1.4460     0.0480     3.5100 ca         1 TMS      -0.234500
     14 C8          -0.9620    -0.0960     3.6420 ca         1 TMS      -0.234500
     15 C9           0.0820    -0.4750    -2.9760 ca         1 TMS      -0.090500
     16 C10         -2.1800     0.3090    -2.8580 ca         1 TMS      -0.090500
     17 C11          1.5190     0.1680     4.8950 ca         1 TMS       0.156100
     18 C12         -0.8910     0.0140     5.0250 ca         1 TMS       0.156100
     19 C13         -1.0890    -0.0840    -3.6280 ca         1 TMS      -0.147600
     20 C14          0.3490     0.1610     5.6580 ca         1 TMS       0.031100
     21 C15         -1.2360    -0.0990    -5.1140 c          1 TMS       0.677700
     22 N1          -0.1040     0.0210    -5.8250 ns         1 TMS      -0.567900
     23 C16         -0.1010     0.0610    -7.2720 c3         1 TMS       0.101000
     24 O1          -2.3360    -0.2140    -5.6410 o          1 TMS      -0.602100
     25 C17          1.3190    -0.0450    -7.8050 c3         1 TMS      -0.101400
     26 C18          1.3360     0.0280    -9.3190 c3         1 TMS       0.143400
     27 O2           2.6730    -0.0530    -9.7620 oh         1 TMS      -0.599800
     28 HE2         -1.8370     0.2850     1.1000 ha         1 TMS       0.126000
     29 HGA          4.6710     0.4250     5.6170 h1         1 TMS       0.042033
     30 HGB          4.0460    -0.6220     4.3310 h1         1 TMS       0.042033
     31 HGC          3.9420     1.1460     4.1720 h1         1 TMS       0.042033
     32 H1A          0.6180    -0.6560     8.7800 h1         1 TMS       0.033367
     33 H1B         -0.2470    -1.6010     7.5550 h1         1 TMS       0.033367
     34 H1C          1.5170    -1.4090     7.4520 h1         1 TMS       0.033367
     35 HFA         -3.9500    -0.1200     6.0950 h1         1 TMS       0.042033
     36 HFB         -3.4710     0.6860     4.5910 h1         1 TMS       0.042033
     37 HFC         -3.3530    -1.0820     4.7310 h1         1 TMS       0.042033
     38 HE3          1.1510    -0.3550     0.9630 ha         1 TMS       0.123000
     39 HC4          1.0820    -0.7890    -1.1290 ha         1 TMS       0.134000
     40 HC5         -2.9470     0.6650    -0.8990 ha         1 TMS       0.134000
     41 HB6          2.3410     0.0560     2.9020 ha         1 TMS       0.138500
     42 HB7         -1.9170    -0.2270     3.1520 ha         1 TMS       0.138500
     43 HD8          0.9370    -0.8290    -3.5380 ha         1 TMS       0.143000
     44 HD9         -3.1030     0.6050    -3.3400 ha         1 TMS       0.143000
     45 H1           0.7440     0.2930    -5.3530 hn         1 TMS       0.315500
     46 HJB         -0.5660     0.9870    -7.6280 h1         1 TMS       0.052200
     47 HJA         -0.7060    -0.7640    -7.6520 h1         1 TMS       0.052200
     48 HKA          1.7650    -0.9880    -7.4750 hc         1 TMS       0.057200
     49 HKB          1.9280     0.7670    -7.3960 hc         1 TMS       0.057200
     50 HLB          0.8650     0.9660    -9.6410 h1         1 TMS       0.020700
     51 HLA          0.7270    -0.7880    -9.7290 h1         1 TMS       0.020700
     52 HO2          2.6710    -0.0150   -10.7230 ho         1 TMS       0.407000
@<TRIPOS>BOND
     1     1     8 2   
     2     1     9 1   
     3     1    28 1   
     4     2     3 1   
     5     2    17 1   
     6     3    29 1   
     7     3    30 1   
     8     3    31 1   
     9     4     5 1   
    10     4    20 1   
    11     5    32 1   
    12     5    33 1   
    13     5    34 1   
    14     6     7 1   
    15     6    18 1   
    16     7    35 1   
    17     7    36 1   
    18     7    37 1   
    19     8    10 1   
    20     8    38 1   
    21     9    11 ar  
    22     9    12 ar  
    23    10    13 ar  
    24    10    14 ar  
    25    11    15 ar  
    26    11    39 1   
    27    12    16 ar  
    28    12    40 1   
    29    13    17 ar  
    30    13    41 1   
    31    14    18 ar  
    32    14    42 1   
    33    15    19 ar  
    34    15    43 1   
    35    16    19 ar  
    36    16    44 1   
    37    17    20 ar  
    38    18    20 ar  
    39    19    21 1   
    40    21    22 1   
    41    21    24 2   
    42    22    23 1   
    43    22    45 1   
    44    23    25 1   
    45    23    46 1   
    46    23    47 1   
    47    25    26 1   
    48    25    48 1   
    49    25    49 1   
    50    26    27 1   
    51    26    50 1   
    52    26    51 1   
    53    27    52 1   
@<TRIPOS>SUBSTRUCTURE
     1 TMS         1 TEMP              0 ****  ****    0 ROOT
