@<TRIPOS>MOLECULE
TMT
   18    18     1     0     0
SMALL
No Charge or Current Charge


@<TRIPOS>ATOM
      1 S1           1.0950     1.3980     0.1440 ss         1 TMT       0.527000
      2 C2           0.9950    -0.3410     0.0460 cc         1 TMT      -0.149600
      3 N3          -0.3090    -0.8330     0.0190 na         1 TMT       0.039300
      4 C4          -1.2580     0.2010     0.0390 cc         1 TMT      -0.070300
      5 C5          -0.6520     1.4390     0.1090 cd         1 TMT      -0.283000
      6 C6           2.2400    -1.2000    -0.0040 c3         1 TMT      -0.061800
      7 C7          -0.6510    -2.2680    -0.0490 c3         1 TMT       0.022900
      8 C8          -2.7460    -0.0400    -0.0120 c3         1 TMT      -0.053800
      9 H5          -1.1360     2.4070     0.1400 h4         1 TMT       0.211000
     10 H61          3.1470    -0.5900    -0.0980 hc         1 TMT       0.095367
     11 H62          2.3420    -1.8010     0.9080 hc         1 TMT       0.095367
     12 H63          2.2160    -1.8850    -0.8600 hc         1 TMT       0.095367
     13 H71         -0.7890    -2.5600    -1.0970 h1         1 TMT       0.092367
     14 H72          0.1490    -2.8730     0.3920 h1         1 TMT       0.092367
     15 H73         -1.5760    -2.4620     0.5060 h1         1 TMT       0.092367
     16 H81         -3.0180    -0.6650    -0.8710 hc         1 TMT       0.085700
     17 H82         -3.0970    -0.5390     0.8990 hc         1 TMT       0.085700
     18 H83         -3.2960     0.9040    -0.1050 hc         1 TMT       0.085700
@<TRIPOS>BOND
     1     1     2 1   
     2     1     5 1   
     3     2     3 2   
     4     2     6 1   
     5     3     4 1   
     6     3     7 1   
     7     4     5 2   
     8     4     8 1   
     9     5     9 1   
    10     6    10 1   
    11     6    11 1   
    12     6    12 1   
    13     7    13 1   
    14     7    14 1   
    15     7    15 1   
    16     8    16 1   
    17     8    17 1   
    18     8    18 1   
@<TRIPOS>SUBSTRUCTURE
     1 TMT         1 TEMP              0 ****  ****    0 ROOT
