@<TRIPOS>MOLECULE
TMT
   18    18     1     0     0
SMALL
abcg2


@<TRIPOS>ATOM
      1 S1           1.0500     1.3270     0.0880 ss         1 TMT       0.527000
      2 C2           0.9790    -0.3560     0.0450 cc         1 TMT      -0.149600
      3 N3          -0.2730    -0.7790     0.0140 na         1 TMT       0.039300
      4 C4          -1.2290     0.2250     0.0180 cc         1 TMT      -0.070300
      5 C5          -0.6560     1.4460     0.0590 cd         1 TMT      -0.283000
      6 C6           2.1800    -1.2220     0.0370 c3         1 TMT      -0.061800
      7 C7          -0.6460    -2.1880    -0.0530 c3         1 TMT       0.022900
      8 C8          -2.6770    -0.0950    -0.0140 c3         1 TMT      -0.053800
      9 H5          -1.1540     2.4020     0.0730 h4         1 TMT       0.211000
     10 H61          3.0840    -0.6190     0.0490 hc         1 TMT       0.095367
     11 H62          2.1940    -1.8700     0.9140 hc         1 TMT       0.095367
     12 H63          2.1990    -1.8470    -0.8550 hc         1 TMT       0.095367
     13 H71         -1.0170    -2.4180    -1.0490 h1         1 TMT       0.092367
     14 H72          0.2130    -2.8120     0.1630 h1         1 TMT       0.092367
     15 H73         -1.4190    -2.3900     0.6820 h1         1 TMT       0.092367
     16 H81         -2.9370    -0.6910    -0.8890 hc         1 TMT       0.085700
     17 H82         -2.9830    -0.6470     0.8750 hc         1 TMT       0.085700
     18 H83         -3.2520     0.8270    -0.0510 hc         1 TMT       0.085700
@<TRIPOS>BOND
     1     1     2 1   
     2     1     5 1   
     3     2     3 2   
     4     2     6 1   
     5     3     4 1   
     6     3     7 1   
     7     4     5 2   
     8     4     8 1   
     9     5     9 1   
    10     6    10 1   
    11     6    11 1   
    12     6    12 1   
    13     7    13 1   
    14     7    14 1   
    15     7    15 1   
    16     8    16 1   
    17     8    17 1   
    18     8    18 1   
@<TRIPOS>SUBSTRUCTURE
     1 TMT         1 TEMP              0 ****  ****    0 ROOT
