@<TRIPOS>MOLECULE
TMU
   33    34     1     0     0
SMALL
No Charge or Current Charge


@<TRIPOS>ATOM
      1 C1          -2.4830    -0.1700    -0.0050 cc         1 TMU       0.620300
      2 S2          -3.4010     1.3090     0.1310 ss         1 TMU       0.031600
      3 N3          -3.1980    -1.2760    -0.1240 nd         1 TMU      -0.674000
      4 N4          -1.1080    -0.1590     0.0130 ns         1 TMU      -0.490400
      5 C5          -4.8570     0.3530     0.0170 cc         1 TMU      -0.413200
      6 C6          -4.5550    -0.9780    -0.1120 cd         1 TMU       0.430900
      7 C7          -0.2370    -1.2070    -0.0800 c          1 TMU       0.657100
      8 N8          -6.1600     0.9390     0.0600 no         1 TMU       0.747200
      9 N9           1.0670    -0.7960    -0.0230 ns         1 TMU      -0.525900
     10 O10         -0.5470    -2.3800    -0.2010 o          1 TMU      -0.553100
     11 O11         -7.1300     0.1800    -0.0290 o          1 TMU      -0.402000
     12 O12         -6.2410     2.1660     0.1810 o          1 TMU      -0.402000
     13 C13          2.2090    -1.7000    -0.0990 c3         1 TMU       0.174300
     14 C14          3.5140    -0.9260    -0.0080 ca         1 TMU      -0.167300
     15 C15          4.1080    -0.6820     1.2450 ca         1 TMU      -0.054500
     16 C16          4.1340    -0.4420    -1.1760 ca         1 TMU      -0.054500
     17 C17          5.3130     0.0370     1.3260 ca         1 TMU      -0.176500
     18 C18          5.3390     0.2780    -1.0930 ca         1 TMU      -0.176500
     19 C19          5.9340     0.5190     0.1640 ca         1 TMU       0.156100
     20 O20          7.1160     1.2180     0.3070 os         1 TMU      -0.337100
     21 C21          7.8320     1.7540    -0.8200 c3         1 TMU       0.146900
     22 HN4         -0.6770     0.7460     0.1090 hn         1 TMU       0.328500
     23 H6          -5.2750    -1.7840    -0.2010 h4         1 TMU       0.072100
     24 HN9          1.2530     0.1930     0.0780 hn         1 TMU       0.319500
     25 H131         2.1680    -2.2540    -1.0470 h1         1 TMU       0.061700
     26 H132         2.1470    -2.4280     0.7220 h1         1 TMU       0.061700
     27 H15          3.6360    -1.0480     2.1550 ha         1 TMU       0.117500
     28 H16          3.6810    -0.6220    -2.1490 ha         1 TMU       0.117500
     29 H17          5.7670     0.2220     2.2960 ha         1 TMU       0.127000
     30 H18          5.7940     0.6380    -2.0120 ha         1 TMU       0.127000
     31 H211         8.7390     2.2700    -0.4830 h1         1 TMU       0.044033
     32 H212         8.1320     0.9540    -1.5080 h1         1 TMU       0.044033
     33 H213         7.2130     2.4770    -1.3670 h1         1 TMU       0.044033
@<TRIPOS>BOND
     1     1     2 1   
     2     1     3 2   
     3     1     4 1   
     4     2     5 1   
     5     3     6 1   
     6     4     7 1   
     7     4    22 1   
     8     5     6 2   
     9     5     8 1   
    10     6    23 1   
    11     7     9 1   
    12     7    10 2   
    13     8    11 1   
    14     8    12 1   
    15     9    13 1   
    16     9    24 1   
    17    13    14 1   
    18    13    25 1   
    19    13    26 1   
    20    14    15 ar  
    21    14    16 ar  
    22    15    17 ar  
    23    15    27 1   
    24    16    18 ar  
    25    16    28 1   
    26    17    19 ar  
    27    17    29 1   
    28    18    19 ar  
    29    18    30 1   
    30    19    20 1   
    31    20    21 1   
    32    21    31 1   
    33    21    32 1   
    34    21    33 1   
@<TRIPOS>SUBSTRUCTURE
     1 TMU         1 TEMP              0 ****  ****    0 ROOT
