@<TRIPOS>MOLECULE
TMU
   33    34     1     0     0
SMALL
bcc


@<TRIPOS>ATOM
      1 C1          -2.4540    -0.1670     0.0140 cc         1 TMU       0.620300
      2 S2          -3.4040     1.2550     0.3420 ss         1 TMU      -0.113300
      3 N3          -3.1340    -1.2380    -0.2980 nd         1 TMU      -0.674000
      4 N4          -1.1080    -0.0680     0.0950 ns         1 TMU      -0.557400
      5 C5          -4.8000     0.2930     0.0240 cc         1 TMU      -0.333600
      6 C6          -4.4560    -0.9860    -0.2930 cd         1 TMU       0.496200
      7 C7          -0.1900    -1.1210    -0.0410 c          1 TMU       0.791100
      8 N8          -6.0880     0.8500     0.1040 no         1 TMU       0.367200
      9 N9           1.0850    -0.7030     0.0180 ns         1 TMU      -0.592900
     10 O10         -0.5230    -2.2770    -0.1910 o          1 TMU      -0.553100
     11 O11         -7.0390     0.1350    -0.1240 o          1 TMU      -0.212000
     12 O12         -6.1610     2.0250     0.4020 o          1 TMU      -0.212000
     13 C13          2.1890    -1.6460    -0.0760 c3         1 TMU       0.174300
     14 C14          3.4960    -0.9100    -0.0020 ca         1 TMU      -0.167300
     15 C15          4.0810    -0.6100     1.2280 ca         1 TMU      -0.072500
     16 C16          4.1390    -0.4800    -1.1540 ca         1 TMU      -0.072500
     17 C17          5.2700     0.0910     1.3020 ca         1 TMU      -0.194500
     18 C18          5.3350     0.2250    -1.1010 ca         1 TMU      -0.194500
     19 C19          5.9090     0.5170     0.1340 ca         1 TMU       0.156100
     20 O20          7.0610     1.1920     0.2970 os         1 TMU      -0.313900
     21 C21          7.7370     1.6610    -0.8530 c3         1 TMU       0.123700
     22 HN4         -0.7350     0.8460     0.3090 hn         1 TMU       0.328500
     23 H6          -5.1570    -1.7740    -0.5320 h4         1 TMU       0.072100
     24 HN9          1.3070     0.2740     0.1210 hn         1 TMU       0.319500
     25 H131         2.1240    -2.1990    -1.0160 h1         1 TMU       0.061700
     26 H132         2.1200    -2.3770     0.7330 h1         1 TMU       0.061700
     27 H15          3.6040    -0.9320     2.1460 ha         1 TMU       0.135500
     28 H16          3.7080    -0.7000    -2.1230 ha         1 TMU       0.135500
     29 H17          5.7150     0.3110     2.2640 ha         1 TMU       0.145000
     30 H18          5.8000     0.5310    -2.0280 ha         1 TMU       0.145000
     31 H211         8.6240     2.1820    -0.4990 h1         1 TMU       0.044033
     32 H212         8.0480     0.8410    -1.5060 h1         1 TMU       0.044033
     33 H213         7.1260     2.3590    -1.4290 h1         1 TMU       0.044033
@<TRIPOS>BOND
     1     1     2 1   
     2     1     3 2   
     3     1     4 1   
     4     2     5 1   
     5     3     6 1   
     6     4     7 1   
     7     4    22 1   
     8     5     6 2   
     9     5     8 1   
    10     6    23 1   
    11     7     9 1   
    12     7    10 2   
    13     8    11 1   
    14     8    12 1   
    15     9    13 1   
    16     9    24 1   
    17    13    14 1   
    18    13    25 1   
    19    13    26 1   
    20    14    15 ar  
    21    14    16 ar  
    22    15    17 ar  
    23    15    27 1   
    24    16    18 ar  
    25    16    28 1   
    26    17    19 ar  
    27    17    29 1   
    28    18    19 ar  
    29    18    30 1   
    30    19    20 1   
    31    20    21 1   
    32    21    31 1   
    33    21    32 1   
    34    21    33 1   
@<TRIPOS>SUBSTRUCTURE
     1 TMU         1 TEMP              0 ****  ****    0 ROOT
