@<TRIPOS>MOLECULE
TMX
   35    35     1     0     0
SMALL
bcc


@<TRIPOS>ATOM
      1 C1          39.4130    -1.5860    12.1310 c6         1 TMX       0.344900
      2 O1          38.9620    -0.2720    12.1440 oh         1 TMX      -0.612800
      3 C2          40.3030    -1.7000    10.8720 c6         1 TMX       0.111500
      4 N2          40.1340    -3.0490    10.1800 n4         1 TMX      -0.607800
      5 C3          41.7650    -1.3690    11.1970 c6         1 TMX       0.142100
      6 O3          42.3290    -0.7280    10.0850 oh         1 TMX      -0.601800
      7 C4          41.8580    -0.4800    12.4380 c6         1 TMX       0.092100
      8 O4          43.2290    -0.2350    12.6580 oh         1 TMX      -0.593800
      9 C5          41.2570    -1.2120    13.6370 c6         1 TMX       0.116100
     10 O5          40.0930    -1.9580    13.2860 os         1 TMX      -0.414600
     11 C6          40.9800    -0.2790    14.7990 c3         1 TMX       0.131400
     12 O6          40.5990    -1.0460    15.9150 oh         1 TMX      -0.582800
     13 C7          40.3600    -4.2090    11.0920 c3         1 TMX       0.105433
     14 C8          41.0840    -3.1690     9.0290 c3         1 TMX       0.105433
     15 C9          38.7550    -3.1390     9.6050 c3         1 TMX       0.105433
     16 H1          38.5660    -2.2770    12.0960 h2         1 TMX       0.072700
     17 HO1         38.3110    -0.1670    12.8480 ho         1 TMX       0.453000
     18 H2          39.9460    -0.9770    10.1360 hx         1 TMX       0.131700
     19 H3          42.3120    -2.2920    11.4420 h1         1 TMX       0.056700
     20 HO3         43.2370    -0.4950    10.3130 ho         1 TMX       0.454000
     21 H4          41.3280     0.4600    12.2460 h1         1 TMX       0.081700
     22 HO4         43.3480     0.6810    12.9240 ho         1 TMX       0.437000
     23 H5          41.9930    -1.9570    13.9590 h1         1 TMX       0.103700
     24 H61         41.8950     0.2950    14.9980 h1         1 TMX       0.030700
     25 H62         40.2060     0.4460    14.5150 h1         1 TMX       0.030700
     26 HO6         40.4130    -0.4450    16.6420 ho         1 TMX       0.422000
     27 H17         39.6080    -4.2370    11.8730 hx         1 TMX       0.098367
     28 H27         40.2900    -5.1190    10.5020 hx         1 TMX       0.098367
     29 H37         41.3510    -4.1480    11.5320 hx         1 TMX       0.098367
     30 H18         42.1060    -3.2280     9.3880 hx         1 TMX       0.098367
     31 H28         40.8430    -4.0830     8.4930 hx         1 TMX       0.098367
     32 H38         40.9630    -2.3130     8.3720 hx         1 TMX       0.098367
     33 H19         38.0050    -3.0820    10.3860 hx         1 TMX       0.098367
     34 H29         38.6140    -2.3260     8.8980 hx         1 TMX       0.098367
     35 H39         38.6570    -4.0920     9.0920 hx         1 TMX       0.098367
@<TRIPOS>BOND
     1     1     2 1   
     2     1     3 1   
     3     1    10 1   
     4     1    16 1   
     5     2    17 1   
     6     3     4 1   
     7     3     5 1   
     8     3    18 1   
     9     4    13 1   
    10     4    14 1   
    11     4    15 1   
    12     5     6 1   
    13     5     7 1   
    14     5    19 1   
    15     6    20 1   
    16     7     8 1   
    17     7     9 1   
    18     7    21 1   
    19     8    22 1   
    20     9    10 1   
    21     9    11 1   
    22     9    23 1   
    23    11    12 1   
    24    11    24 1   
    25    11    25 1   
    26    12    26 1   
    27    13    27 1   
    28    13    28 1   
    29    13    29 1   
    30    14    30 1   
    31    14    31 1   
    32    14    32 1   
    33    15    33 1   
    34    15    34 1   
    35    15    35 1   
@<TRIPOS>SUBSTRUCTURE
     1 TMX         1 TEMP              0 ****  ****    0 ROOT
