@<TRIPOS>MOLECULE
TMX
   35    35     1     0     0
SMALL
No Charge or Current Charge


@<TRIPOS>ATOM
      1 C1          39.7620    -2.3060    12.6490 c6         1 TMX       0.391300
      2 O1          38.6070    -1.5030    12.8070 oh         1 TMX      -0.675000
      3 C2          40.5140    -2.0020    11.2960 c6         1 TMX       0.083300
      4 N2          40.0610    -2.9580    10.1040 n4         1 TMX      -0.495000
      5 C3          42.0610    -1.9200    11.6060 c6         1 TMX       0.165300
      6 O3          42.8550    -1.6490    10.4420 oh         1 TMX      -0.664000
      7 C4          42.3560    -0.7880    12.6510 c6         1 TMX       0.115300
      8 O4          43.7460    -0.8390    13.0690 oh         1 TMX      -0.716000
      9 C5          41.3750    -0.8700    13.8690 c6         1 TMX       0.139300
     10 O5          40.5890    -2.0970    13.8080 os         1 TMX      -0.461000
     11 C6          40.4630     0.4030    14.0040 c3         1 TMX       0.154600
     12 O6          39.3060     0.1800    14.8330 oh         1 TMX      -0.705000
     13 C7          40.6380    -4.3730    10.2830 c3         1 TMX       0.077233
     14 C8          40.5310    -2.4080     8.7460 c3         1 TMX       0.077233
     15 C9          38.5240    -3.0540    10.0370 c3         1 TMX       0.077233
     16 H1          39.4600    -3.3640    12.6560 h2         1 TMX       0.072700
     17 HO1         38.8060    -0.9770    13.6280 ho         1 TMX       0.492000
     18 H2          40.1980    -1.0060    10.9740 hx         1 TMX       0.131700
     19 H3          42.3760    -2.8790    12.0470 h1         1 TMX       0.056700
     20 HO3         43.7510    -1.4320    10.7910 ho         1 TMX       0.493000
     21 H4          42.1700     0.1700    12.1380 h1         1 TMX       0.081700
     22 HO4         43.9630     0.0150    13.5150 ho         1 TMX       0.536000
     23 H5          41.9700    -0.9210    14.7930 h1         1 TMX       0.103700
     24 H61         41.0770     1.2140    14.4180 h1         1 TMX       0.030700
     25 H62         40.1440     0.7240    13.0030 h1         1 TMX       0.030700
     26 HO6         39.0810     1.0420    15.2620 ho         1 TMX       0.521000
     27 H17         40.2900    -4.7950    11.2280 hx         1 TMX       0.098367
     28 H27         40.3060    -5.0060     9.4560 hx         1 TMX       0.098367
     29 H37         41.7280    -4.3180    10.2830 hx         1 TMX       0.098367
     30 H18         41.6200    -2.4310     8.6960 hx         1 TMX       0.098367
     31 H28         40.1240    -3.0280     7.9450 hx         1 TMX       0.098367
     32 H38         40.1780    -1.3810     8.6290 hx         1 TMX       0.098367
     33 H19         38.1410    -3.5030    10.9550 hx         1 TMX       0.098367
     34 H29         38.1050    -2.0530     9.9190 hx         1 TMX       0.098367
     35 H39         38.2370    -3.6740     9.1840 hx         1 TMX       0.098367
@<TRIPOS>BOND
     1     1     2 1   
     2     1     3 1   
     3     1    10 1   
     4     1    16 1   
     5     2    17 1   
     6     3     4 1   
     7     3     5 1   
     8     3    18 1   
     9     4    13 1   
    10     4    14 1   
    11     4    15 1   
    12     5     6 1   
    13     5     7 1   
    14     5    19 1   
    15     6    20 1   
    16     7     8 1   
    17     7     9 1   
    18     7    21 1   
    19     8    22 1   
    20     9    10 1   
    21     9    11 1   
    22     9    23 1   
    23    11    12 1   
    24    11    24 1   
    25    11    25 1   
    26    12    26 1   
    27    13    27 1   
    28    13    28 1   
    29    13    29 1   
    30    14    30 1   
    31    14    31 1   
    32    14    32 1   
    33    15    33 1   
    34    15    34 1   
    35    15    35 1   
@<TRIPOS>SUBSTRUCTURE
     1 TMX         1 TEMP              0 ****  ****    0 ROOT
