@<TRIPOS>MOLECULE
TMY
   59    59     1     0     0
SMALL
bcc


@<TRIPOS>ATOM
      1 C1          -1.8550    -0.2010     0.3460 ca         1 TMY      -0.055300
      2 C2          -3.0400     0.5380     0.4140 ca         1 TMY       0.119100
      3 C3          -3.0970     1.8720     0.0180 ca         1 TMY       0.070100
      4 C4          -1.9400     2.5140    -0.4390 ca         1 TMY       0.125100
      5 C5          -0.7560     1.7970    -0.4960 ca         1 TMY      -0.190000
      6 C6          -0.7050     0.4550    -0.1100 ca         1 TMY      -0.116600
      7 C13         -1.8540    -1.6230     0.8300 c3         1 TMY      -0.087100
      8 C14         -1.8020    -2.6260    -0.2940 c          1 TMY       0.665100
      9 O15         -2.1840    -2.4150    -1.4190 o          1 TMY      -0.548000
     10 O16         -1.3530    -3.8000     0.1210 os         1 TMY      -0.420900
     11 C17         -1.2840    -4.8690    -0.8340 c3         1 TMY       0.146400
     12 C18         -0.6600    -6.0610    -0.1490 c3         1 TMY      -0.096100
     13 C19          0.6010    -0.2600    -0.2220 c          1 TMY       0.580700
     14 C20          1.8670     0.5640    -0.2160 c3         1 TMY      -0.173400
     15 C21          3.1450    -0.2440    -0.0550 c3         1 TMY      -0.066400
     16 C22          4.3750     0.6560    -0.0380 c3         1 TMY      -0.076400
     17 C23          5.6790    -0.1190     0.1070 c3         1 TMY      -0.074400
     18 C24          6.9070     0.7820     0.1310 c3         1 TMY      -0.076400
     19 C25          8.2180     0.0160     0.2590 c3         1 TMY      -0.075400
     20 C26          9.4340     0.9320     0.2830 c3         1 TMY      -0.088100
     21 O27          0.6470    -1.4700    -0.3100 o          1 TMY      -0.517100
     22 O28         -4.1710    -0.0300     0.9070 os         1 TMY      -0.343900
     23 O29         -4.2690     2.5450     0.0640 os         1 TMY      -0.318900
     24 O30         -2.0810     3.7990    -0.7940 os         1 TMY      -0.298900
     25 C31         -5.0660    -0.5320    -0.0800 c3         1 TMY       0.122700
     26 C32         -4.5010     3.2470     1.2810 c3         1 TMY       0.128700
     27 C33         -0.9390     4.5040    -1.2420 c3         1 TMY       0.120700
     28 H5           0.1410     2.2790    -0.8530 ha         1 TMY       0.139000
     29 H13         -1.0390    -1.8080     1.5300 hc         1 TMY       0.087700
     30 H17         -2.2870    -5.1070    -1.1920 h1         1 TMY       0.047200
     31 H17A        -0.6860    -4.5580    -1.6930 h1         1 TMY       0.047200
     32 H18          0.3540    -5.8450     0.1880 hc         1 TMY       0.045033
     33 H18A        -1.2500    -6.3860     0.7080 hc         1 TMY       0.045033
     34 H18B        -0.6090    -6.8910    -0.8530 hc         1 TMY       0.045033
     35 H20          1.9090     1.1280    -1.1550 hc         1 TMY       0.060700
     36 H20A         1.7880     1.3220     0.5700 hc         1 TMY       0.060700
     37 H21          3.1060    -0.8240     0.8720 hc         1 TMY       0.053700
     38 H21A         3.2360    -0.9670    -0.8690 hc         1 TMY       0.053700
     39 H22          4.4060     1.2480    -0.9600 hc         1 TMY       0.034700
     40 H22A         4.2870     1.3770     0.7820 hc         1 TMY       0.034700
     41 H23          5.6480    -0.7160     1.0250 hc         1 TMY       0.040200
     42 H23A         5.7700    -0.8350    -0.7170 hc         1 TMY       0.040200
     43 H24          6.9300     1.3880    -0.7820 hc         1 TMY       0.036700
     44 H24A         6.8190     1.4920     0.9610 hc         1 TMY       0.036700
     45 H25          8.1960    -0.5900     1.1700 hc         1 TMY       0.037700
     46 H25A         8.3060    -0.6910    -0.5720 hc         1 TMY       0.037700
     47 H26          9.4930     1.5300    -0.6280 hc         1 TMY       0.031700
     48 H26A         9.3890     1.6220     1.1270 hc         1 TMY       0.031700
     49 H26B        10.3630     0.3670     0.3670 hc         1 TMY       0.031700
     50 H31         -5.4980     0.2720    -0.6780 h1         1 TMY       0.046033
     51 H31A        -4.5680    -1.2410    -0.7440 h1         1 TMY       0.046033
     52 H31B        -5.8660    -1.0470     0.4490 h1         1 TMY       0.046033
     53 H32         -3.7380     4.0080     1.4590 h1         1 TMY       0.038367
     54 H32A        -5.4680     3.7360     1.1860 h1         1 TMY       0.038367
     55 H32B        -4.5320     2.5680     2.1350 h1         1 TMY       0.038367
     56 H33         -0.1570     4.5420    -0.4800 h1         1 TMY       0.043033
     57 H33A        -0.5250     4.0700    -2.1550 h1         1 TMY       0.043033
     58 H33B        -1.2690     5.5170    -1.4550 h1         1 TMY       0.043033
     59 H13A        -2.7720    -1.8180     1.3900 hc         1 TMY       0.087700
@<TRIPOS>BOND
     1     1     2 ar  
     2     1     6 ar  
     3     1     7 1   
     4     2     3 ar  
     5     2    22 1   
     6     3     4 ar  
     7     3    23 1   
     8     4     5 ar  
     9     4    24 1   
    10     5     6 ar  
    11     5    28 1   
    12     6    13 1   
    13     7     8 1   
    14     7    29 1   
    15     7    59 1   
    16     8     9 2   
    17     8    10 1   
    18    10    11 1   
    19    11    12 1   
    20    11    30 1   
    21    11    31 1   
    22    12    32 1   
    23    12    33 1   
    24    12    34 1   
    25    13    14 1   
    26    13    21 2   
    27    14    15 1   
    28    14    35 1   
    29    14    36 1   
    30    15    16 1   
    31    15    37 1   
    32    15    38 1   
    33    16    17 1   
    34    16    39 1   
    35    16    40 1   
    36    17    18 1   
    37    17    41 1   
    38    17    42 1   
    39    18    19 1   
    40    18    43 1   
    41    18    44 1   
    42    19    20 1   
    43    19    45 1   
    44    19    46 1   
    45    20    47 1   
    46    20    48 1   
    47    20    49 1   
    48    22    25 1   
    49    23    26 1   
    50    24    27 1   
    51    25    50 1   
    52    25    51 1   
    53    25    52 1   
    54    26    53 1   
    55    26    54 1   
    56    26    55 1   
    57    27    56 1   
    58    27    57 1   
    59    27    58 1   
@<TRIPOS>SUBSTRUCTURE
     1 TMY         1 TEMP              0 ****  ****    0 ROOT
