@<TRIPOS>MOLECULE
TMY
   59    59     1     0     0
SMALL
No Charge or Current Charge


@<TRIPOS>ATOM
      1 C1          -1.2620    -0.1790     0.2430 ca         1 TMY      -0.055300
      2 C2          -2.3090     0.4880     0.9260 ca         1 TMY       0.119100
      3 C3          -2.6860     1.8160     0.5860 ca         1 TMY       0.070100
      4 C4          -2.0160     2.4680    -0.4940 ca         1 TMY       0.125100
      5 C5          -0.9940     1.7820    -1.1850 ca         1 TMY      -0.172000
      6 C6          -0.6090     0.4760    -0.8280 ca         1 TMY      -0.116600
      7 C13         -0.8360    -1.5910     0.6840 c3         1 TMY      -0.087100
      8 C14         -1.5530    -2.6950    -0.0990 c          1 TMY       0.616100
      9 O15         -2.7710    -2.7950    -0.1760 o          1 TMY      -0.499000
     10 O16         -0.6780    -3.6650    -0.5170 os         1 TMY      -0.444100
     11 C17         -1.2110    -4.7970    -1.2230 c3         1 TMY       0.169600
     12 C18         -0.0280    -5.7030    -1.5980 c3         1 TMY      -0.096100
     13 C19          0.4940    -0.1900    -1.6150 c          1 TMY       0.580700
     14 C20          1.8770     0.4750    -1.6220 c3         1 TMY      -0.173400
     15 C21          2.8000    -0.1570    -0.5540 c3         1 TMY      -0.066400
     16 C22          4.2050     0.4820    -0.5180 c3         1 TMY      -0.076400
     17 C23          5.1270    -0.1480     0.5490 c3         1 TMY      -0.074400
     18 C24          6.5330     0.4910     0.5860 c3         1 TMY      -0.076400
     19 C25          7.4550    -0.1380     1.6530 c3         1 TMY      -0.075400
     20 C26          8.8570     0.5000     1.6900 c3         1 TMY      -0.088100
     21 O27          0.2910    -1.2210    -2.2430 o          1 TMY      -0.517100
     22 O28         -2.9360    -0.1770     1.9660 os         1 TMY      -0.367100
     23 O29         -3.6770     2.4120     1.3690 os         1 TMY      -0.342100
     24 O30         -2.3600     3.7580    -0.8670 os         1 TMY      -0.322100
     25 C31         -4.3410    -0.4880     1.8950 c3         1 TMY       0.145900
     26 C32         -4.1780     3.7500     1.2030 c3         1 TMY       0.151900
     27 C33         -1.7160     4.4720    -1.9380 c3         1 TMY       0.143900
     28 H5          -0.4790     2.2510    -2.0180 ha         1 TMY       0.121000
     29 H13          0.2470    -1.7290     0.5870 hc         1 TMY       0.087700
     30 H17         -1.9170    -5.3560    -0.5940 h1         1 TMY       0.047200
     31 H17A        -1.7320    -4.4790    -2.1360 h1         1 TMY       0.047200
     32 H18          0.6820    -5.1660    -2.2370 hc         1 TMY       0.045033
     33 H18A         0.4970    -6.0450    -0.6980 hc         1 TMY       0.045033
     34 H18B        -0.3840    -6.5850    -2.1440 hc         1 TMY       0.045033
     35 H20          2.3350     0.3530    -2.6100 hc         1 TMY       0.060700
     36 H20A         1.7740     1.5370    -1.3720 hc         1 TMY       0.060700
     37 H21          2.3330    -0.0540     0.4340 hc         1 TMY       0.053700
     38 H21A         2.8980    -1.2330    -0.7510 hc         1 TMY       0.053700
     39 H22          4.6740     0.3780    -1.5050 hc         1 TMY       0.034700
     40 H22A         4.1080     1.5570    -0.3210 hc         1 TMY       0.034700
     41 H23          4.6590    -0.0440     1.5360 hc         1 TMY       0.040200
     42 H23A         5.2250    -1.2230     0.3520 hc         1 TMY       0.040200
     43 H24          7.0010     0.3880    -0.4010 hc         1 TMY       0.036700
     44 H24A         6.4350     1.5660     0.7830 hc         1 TMY       0.036700
     45 H25          6.9910    -0.0340     2.6420 hc         1 TMY       0.037700
     46 H25A         7.5570    -1.2120     1.4580 hc         1 TMY       0.037700
     47 H26          9.3630     0.3820     0.7240 hc         1 TMY       0.031700
     48 H26A         8.7910     1.5700     1.9190 hc         1 TMY       0.031700
     49 H26B         9.4740     0.0220     2.4610 hc         1 TMY       0.031700
     50 H31         -4.9600     0.4160     1.9090 h1         1 TMY       0.046033
     51 H31A        -4.5680    -1.0470     0.9790 h1         1 TMY       0.046033
     52 H31B        -4.6350    -1.1070     2.7530 h1         1 TMY       0.046033
     53 H32         -4.6360     3.8790     0.2140 h1         1 TMY       0.038367
     54 H32A        -4.9480     3.9590     1.9570 h1         1 TMY       0.038367
     55 H32B        -3.3770     4.4890     1.3310 h1         1 TMY       0.038367
     56 H33         -0.6430     4.5890    -1.7400 h1         1 TMY       0.043033
     57 H33A        -1.8460     3.9450    -2.8920 h1         1 TMY       0.043033
     58 H33B        -2.1520     5.4730    -2.0420 h1         1 TMY       0.043033
     59 H13A        -1.0540    -1.7550     1.7440 hc         1 TMY       0.087700
@<TRIPOS>BOND
     1     1     2 ar  
     2     1     6 ar  
     3     1     7 1   
     4     2     3 ar  
     5     2    22 1   
     6     3     4 ar  
     7     3    23 1   
     8     4     5 ar  
     9     4    24 1   
    10     5     6 ar  
    11     5    28 1   
    12     6    13 1   
    13     7     8 1   
    14     7    29 1   
    15     7    59 1   
    16     8     9 2   
    17     8    10 1   
    18    10    11 1   
    19    11    12 1   
    20    11    30 1   
    21    11    31 1   
    22    12    32 1   
    23    12    33 1   
    24    12    34 1   
    25    13    14 1   
    26    13    21 2   
    27    14    15 1   
    28    14    35 1   
    29    14    36 1   
    30    15    16 1   
    31    15    37 1   
    32    15    38 1   
    33    16    17 1   
    34    16    39 1   
    35    16    40 1   
    36    17    18 1   
    37    17    41 1   
    38    17    42 1   
    39    18    19 1   
    40    18    43 1   
    41    18    44 1   
    42    19    20 1   
    43    19    45 1   
    44    19    46 1   
    45    20    47 1   
    46    20    48 1   
    47    20    49 1   
    48    22    25 1   
    49    23    26 1   
    50    24    27 1   
    51    25    50 1   
    52    25    51 1   
    53    25    52 1   
    54    26    53 1   
    55    26    54 1   
    56    26    55 1   
    57    27    56 1   
    58    27    57 1   
    59    27    58 1   
@<TRIPOS>SUBSTRUCTURE
     1 TMY         1 TEMP              0 ****  ****    0 ROOT
