@<TRIPOS>MOLECULE
TMZ
   18    18     1     0     0
SMALL
bcc


@<TRIPOS>ATOM
      1 S1           0.9950     1.3450     0.0600 ss         1 TMZ       0.245200
      2 C2          -0.6790     1.3640     0.0430 cc         1 TMZ      -0.087400
      3 N3          -1.1850     0.1530     0.0130 na         1 TMZ       0.042900
      4 C4          -0.2470    -0.8620     0.0030 cc         1 TMZ      -0.049600
      5 C5           1.0200    -0.3750     0.0260 cd         1 TMZ      -0.076400
      6 C6          -2.6210    -0.1040    -0.0240 c3         1 TMZ      -0.004400
      7 C7          -0.6640    -2.2860    -0.0200 c3         1 TMZ      -0.050800
      8 C8           2.2970    -1.1420     0.0290 c3         1 TMZ      -0.035800
      9 H2          -1.2820     2.2580     0.0540 h5         1 TMZ       0.237000
     10 H61         -2.8880    -0.5280    -0.9890 h1         1 TMZ       0.094033
     11 H62         -2.8850    -0.7980     0.7680 h1         1 TMZ       0.094033
     12 H63         -3.1520     0.8300     0.1220 h1         1 TMZ       0.094033
     13 H71         -1.3480    -2.4890    -0.8440 hc         1 TMZ       0.084033
     14 H72          0.2050    -2.9260    -0.1390 hc         1 TMZ       0.084033
     15 H73         -1.1610    -2.5680     0.9090 hc         1 TMZ       0.084033
     16 H81          3.1620    -0.4840     0.0820 hc         1 TMZ       0.081033
     17 H82          2.3390    -1.8140     0.8850 hc         1 TMZ       0.081033
     18 H83          2.3880    -1.7390    -0.8780 hc         1 TMZ       0.081033
@<TRIPOS>BOND
     1     1     2 1   
     2     1     5 1   
     3     2     3 2   
     4     2     9 1   
     5     3     4 1   
     6     3     6 1   
     7     4     5 2   
     8     4     7 1   
     9     5     8 1   
    10     6    10 1   
    11     6    11 1   
    12     6    12 1   
    13     7    13 1   
    14     7    14 1   
    15     7    15 1   
    16     8    16 1   
    17     8    17 1   
    18     8    18 1   
@<TRIPOS>SUBSTRUCTURE
     1 TMZ         1 TEMP              0 ****  ****    0 ROOT
