@<TRIPOS>MOLECULE
TMZ
   18    18     1     0     0
SMALL
No Charge or Current Charge


@<TRIPOS>ATOM
      1 S1           1.0770     1.4080     0.0820 ss         1 TMZ       0.535000
      2 C2          -0.6550     1.4010     0.0640 cc         1 TMZ      -0.214300
      3 N3          -1.2300     0.1410     0.0200 na         1 TMZ       0.064300
      4 C4          -0.2650    -0.8770     0.0000 cc         1 TMZ      -0.100300
      5 C5           1.0170    -0.3510     0.0290 cd         1 TMZ      -0.221300
      6 C6          -2.6840    -0.0860    -0.0020 c3         1 TMZ       0.024900
      7 C7          -0.6390    -2.3410    -0.0470 c3         1 TMZ      -0.050800
      8 C8           2.3100    -1.1360     0.0200 c3         1 TMZ      -0.035800
      9 H2          -1.2200     2.3230     0.0850 h5         1 TMZ       0.219000
     10 H61         -2.9580    -0.6250    -0.9170 h1         1 TMZ       0.094033
     11 H62         -2.9770    -0.6790     0.8720 h1         1 TMZ       0.094033
     12 H63         -3.2150     0.8730     0.0210 h1         1 TMZ       0.094033
     13 H71         -1.2210    -2.5690    -0.9480 hc         1 TMZ       0.084033
     14 H72          0.2450    -2.9880    -0.0570 hc         1 TMZ       0.084033
     15 H73         -1.2400    -2.6220     0.8250 hc         1 TMZ       0.084033
     16 H81          3.1880    -0.4790     0.0490 hc         1 TMZ       0.081033
     17 H82          2.3720    -1.8050     0.8870 hc         1 TMZ       0.081033
     18 H83          2.3910    -1.7520    -0.8840 hc         1 TMZ       0.081033
@<TRIPOS>BOND
     1     1     2 1   
     2     1     5 1   
     3     2     3 2   
     4     2     9 1   
     5     3     4 1   
     6     3     6 1   
     7     4     5 2   
     8     4     7 1   
     9     5     8 1   
    10     6    10 1   
    11     6    11 1   
    12     6    12 1   
    13     7    13 1   
    14     7    14 1   
    15     7    15 1   
    16     8    16 1   
    17     8    17 1   
    18     8    18 1   
@<TRIPOS>SUBSTRUCTURE
     1 TMZ         1 TEMP              0 ****  ****    0 ROOT
