@<TRIPOS>MOLECULE
TN1
   23    24     1     0     0
SMALL
bcc


@<TRIPOS>ATOM
      1 C1           0.0970     0.3850    -0.0620 ca         1 TN1      -0.163300
      2 C2           1.4670     0.6890    -0.0550 ca         1 TN1       0.142100
      3 C3           2.4260    -0.3170    -0.0560 ca         1 TN1      -0.167000
      4 C4           2.0230    -1.6430    -0.0460 ca         1 TN1      -0.092000
      5 C5           0.6760    -1.9620    -0.0290 ca         1 TN1      -0.168000
      6 C6          -0.2910    -0.9570    -0.0370 ca         1 TN1      -0.030300
      7 C7          -1.7490    -1.3450    -0.0270 c6         1 TN1      -0.034100
      8 C8          -2.6660    -0.2140     0.4120 c6         1 TN1      -0.072400
      9 C9          -2.3330     1.0460    -0.3670 c6         1 TN1      -0.069400
     10 C10         -0.9130     1.5090    -0.0640 c6         1 TN1      -0.029100
     11 O11          1.9220     1.9620    -0.0460 oh         1 TN1      -0.503100
     12 HG           3.4770    -0.0560    -0.0570 ha         1 TN1       0.146000
     13 HF           2.7680    -2.4280    -0.0400 ha         1 TN1       0.132000
     14 HE           0.3640    -3.0000    -0.0050 ha         1 TN1       0.130000
     15 HD1         -2.0350    -1.6650    -1.0350 hc         1 TN1       0.049200
     16 HD2         -1.8830    -2.2190     0.6140 hc         1 TN1       0.049200
     17 HC1         -3.7080    -0.5020     0.2570 hc         1 TN1       0.043700
     18 HC2         -2.5460    -0.0290     1.4840 hc         1 TN1       0.043700
     19 HB1         -2.4360     0.8460    -1.4380 hc         1 TN1       0.043200
     20 HB2         -3.0320     1.8510    -0.1320 hc         1 TN1       0.043200
     21 HA1         -0.6370     2.2750    -0.7970 hc         1 TN1       0.040200
     22 HA2         -0.9020     2.0070     0.9130 hc         1 TN1       0.040200
     23 HH           1.1950     2.5920    -0.0000 ho         1 TN1       0.426000
@<TRIPOS>BOND
     1     1     2 ar  
     2     1     6 ar  
     3     1    10 1   
     4     2     3 ar  
     5     2    11 1   
     6     3     4 ar  
     7     3    12 1   
     8     4     5 ar  
     9     4    13 1   
    10     5     6 ar  
    11     5    14 1   
    12     6     7 1   
    13     7     8 1   
    14     7    15 1   
    15     7    16 1   
    16     8     9 1   
    17     8    17 1   
    18     8    18 1   
    19     9    10 1   
    20     9    19 1   
    21     9    20 1   
    22    10    21 1   
    23    10    22 1   
    24    11    23 1   
@<TRIPOS>SUBSTRUCTURE
     1 TN1         1 TEMP              0 ****  ****    0 ROOT
