@<TRIPOS>MOLECULE
TN1
   23    24     1     0     0
SMALL
No Charge or Current Charge


@<TRIPOS>ATOM
      1 C1           0.1280     0.4010    -0.0550 ca         1 TN1      -0.163300
      2 C2           1.5110     0.7030    -0.0620 ca         1 TN1       0.142100
      3 C3           2.4650    -0.3250    -0.0630 ca         1 TN1      -0.149000
      4 C4           2.0600    -1.6670    -0.0510 ca         1 TN1      -0.074000
      5 C5           0.6930    -1.9800    -0.0320 ca         1 TN1      -0.150000
      6 C6          -0.2780    -0.9600    -0.0260 ca         1 TN1      -0.030300
      7 C7          -1.7580    -1.3610    -0.0090 c6         1 TN1      -0.034100
      8 C8          -2.7040    -0.2130     0.4010 c6         1 TN1      -0.072400
      9 C9          -2.3540     1.0670    -0.3780 c6         1 TN1      -0.069400
     10 C10         -0.9190     1.5340    -0.0460 c6         1 TN1      -0.029100
     11 O11          1.9470     1.9960    -0.0600 oh         1 TN1      -0.542100
     12 HG           3.5250    -0.0800    -0.0710 ha         1 TN1       0.128000
     13 HF           2.8030    -2.4620    -0.0540 ha         1 TN1       0.114000
     14 HE           0.3850    -3.0230    -0.0210 ha         1 TN1       0.112000
     15 HD1         -2.0370    -1.7170    -1.0110 hc         1 TN1       0.049200
     16 HD2         -1.9080    -2.2130     0.6680 hc         1 TN1       0.049200
     17 HC1         -3.7470    -0.5010     0.2130 hc         1 TN1       0.043700
     18 HC2         -2.6170    -0.0260     1.4810 hc         1 TN1       0.043700
     19 HB1         -2.4420     0.8780    -1.4570 hc         1 TN1       0.043200
     20 HB2         -3.0710     1.8650    -0.1400 hc         1 TN1       0.043200
     21 HA1         -0.6400     2.3200    -0.7610 hc         1 TN1       0.040200
     22 HA2         -0.9200     2.0050     0.9470 hc         1 TN1       0.040200
     23 HH           1.1620     2.5810    -0.0250 ho         1 TN1       0.465000
@<TRIPOS>BOND
     1     1     2 ar  
     2     1     6 ar  
     3     1    10 1   
     4     2     3 ar  
     5     2    11 1   
     6     3     4 ar  
     7     3    12 1   
     8     4     5 ar  
     9     4    13 1   
    10     5     6 ar  
    11     5    14 1   
    12     6     7 1   
    13     7     8 1   
    14     7    15 1   
    15     7    16 1   
    16     8     9 1   
    17     8    17 1   
    18     8    18 1   
    19     9    10 1   
    20     9    19 1   
    21     9    20 1   
    22    10    21 1   
    23    10    22 1   
    24    11    23 1   
@<TRIPOS>SUBSTRUCTURE
     1 TN1         1 TEMP              0 ****  ****    0 ROOT
