@<TRIPOS>MOLECULE
TN2
   26    27     1     0     0
SMALL
bcc


@<TRIPOS>ATOM
      1 O19         -4.1540    -3.0890    -0.0450 o          1 TN2      -0.210500
      2 N17         -4.2830    -1.8870    -0.0590 no         1 TN2       0.322200
      3 O18         -5.3470    -1.3240    -0.1730 o          1 TN2      -0.210500
      4 C14         -3.0910    -1.0730     0.0690 ca         1 TN2      -0.214200
      5 C13         -3.2160     0.3090     0.0450 ca         1 TN2      -0.027000
      6 C11         -2.0800     1.0790     0.1630 ca         1 TN2      -0.026600
      7 CL12        -2.1960     2.7960     0.1350 cl         1 TN2      -0.061400
      8 C15         -1.8560    -1.6840     0.2130 ca         1 TN2      -0.024000
      9 C16         -0.7240    -0.9020     0.3320 ca         1 TN2      -0.213000
     10 C10         -0.8210     0.4850     0.3050 ca         1 TN2       0.199100
     11 O9           0.2230     1.3170     0.4350 os         1 TN2      -0.207200
     12 C6           1.5010     0.8200     0.3340 ca         1 TN2       0.040100
     13 C4           2.0010     0.4920    -0.9280 ca         1 TN2       0.145100
     14 O5           1.1690     0.6120    -1.9700 oh         1 TN2      -0.474100
     15 C3           3.3160     0.0560    -1.0370 ca         1 TN2      -0.216000
     16 C7           2.2910     0.7180     1.4610 ca         1 TN2      -0.078000
     17 C8           3.6070     0.2870     1.3580 ca         1 TN2      -0.150000
     18 C2           4.0970    -0.0370     0.1050 ca         1 TN2       0.073400
     19 CL20         5.7350    -0.5750    -0.0530 cl         1 TN2      -0.092400
     20 H13         -4.1780     0.7870    -0.0700 ha         1 TN2       0.184000
     21 H15         -1.7600    -2.7600     0.2380 ha         1 TN2       0.171000
     22 H16          0.2370    -1.3840     0.4570 ha         1 TN2       0.157000
     23 HO5          1.6040     0.3480    -2.7890 ho         1 TN2       0.438000
     24 H3           3.7230    -0.2030    -2.0060 ha         1 TN2       0.155000
     25 H7           1.8800     0.9810     2.4270 ha         1 TN2       0.159000
     26 H8           4.2270     0.2070     2.2380 ha         1 TN2       0.160000
@<TRIPOS>BOND
     1     1     2 1   
     2     2     3 1   
     3     2     4 1   
     4     4     5 ar  
     5     4     8 ar  
     6     5     6 ar  
     7     5    20 1   
     8     6     7 1   
     9     6    10 ar  
    10     8     9 ar  
    11     8    21 1   
    12     9    10 ar  
    13     9    22 1   
    14    10    11 1   
    15    11    12 1   
    16    12    13 ar  
    17    12    16 ar  
    18    13    14 1   
    19    13    15 ar  
    20    14    23 1   
    21    15    18 ar  
    22    15    24 1   
    23    16    17 ar  
    24    16    25 1   
    25    17    18 ar  
    26    17    26 1   
    27    18    19 1   
@<TRIPOS>SUBSTRUCTURE
     1 TN2         1 TEMP              0 ****  ****    0 ROOT
