@<TRIPOS>MOLECULE
TN2
   26    27     1     0     0
SMALL
No Charge or Current Charge


@<TRIPOS>ATOM
      1 O19         -4.2620    -3.1630    -0.1950 o          1 TN2      -0.400500
      2 N17         -4.3740    -1.9320    -0.2530 no         1 TN2       0.702200
      3 O18         -5.4370    -1.3520    -0.5110 o          1 TN2      -0.400500
      4 C14         -3.1570    -1.0980     0.0000 ca         1 TN2      -0.214200
      5 C13         -3.2330     0.3150    -0.0540 ca         1 TN2      -0.009000
      6 C11         -2.0910     1.0990     0.1840 ca         1 TN2       0.065000
      7 Cl12        -2.2240     2.8570     0.1100 cl         1 TN2      -0.153000
      8 C15         -1.9170    -1.7100     0.3000 ca         1 TN2      -0.006000
      9 C16         -0.7780    -0.9220     0.5370 ca         1 TN2      -0.195000
     10 C10         -0.8580     0.4840     0.4720 ca         1 TN2       0.199100
     11 O9           0.2520     1.2690     0.7140 os         1 TN2      -0.207200
     12 C6           1.5360     0.8400     0.4580 ca         1 TN2       0.040100
     13 C4           1.9470     0.4780    -0.8490 ca         1 TN2       0.145100
     14 O5           1.0810     0.5520    -1.9060 oh         1 TN2      -0.513100
     15 C3           3.2670     0.0480    -1.0690 ca         1 TN2      -0.198000
     16 C7           2.4520     0.7860     1.5230 ca         1 TN2      -0.060000
     17 C8           3.7710     0.3550     1.2950 ca         1 TN2      -0.132000
     18 C2           4.1730    -0.0150     0.0020 ca         1 TN2       0.165000
     19 Cl20         5.8230    -0.5520    -0.2810 cl         1 TN2      -0.184000
     20 H13         -4.1730     0.8160    -0.2790 ha         1 TN2       0.166000
     21 H15         -1.8280    -2.7950     0.3540 ha         1 TN2       0.153000
     22 H16          0.1640    -1.4080     0.7750 ha         1 TN2       0.139000
     23 HO5          1.5540     0.2780    -2.7200 ho         1 TN2       0.477000
     24 H3           3.5990    -0.2350    -2.0640 ha         1 TN2       0.137000
     25 H7           2.1380     1.0740     2.5240 ha         1 TN2       0.141000
     26 H8           4.4800     0.3080     2.1170 ha         1 TN2       0.142000
@<TRIPOS>BOND
     1     1     2 1   
     2     2     3 1   
     3     2     4 1   
     4     4     5 ar  
     5     4     8 ar  
     6     5     6 ar  
     7     5    20 1   
     8     6     7 1   
     9     6    10 ar  
    10     8     9 ar  
    11     8    21 1   
    12     9    10 ar  
    13     9    22 1   
    14    10    11 1   
    15    11    12 1   
    16    12    13 ar  
    17    12    16 ar  
    18    13    14 1   
    19    13    15 ar  
    20    14    23 1   
    21    15    18 ar  
    22    15    24 1   
    23    16    17 ar  
    24    16    25 1   
    25    17    18 ar  
    26    17    26 1   
    27    18    19 1   
@<TRIPOS>SUBSTRUCTURE
     1 TN2         1 TEMP              0 ****  ****    0 ROOT
