@<TRIPOS>MOLECULE
TN3
   31    32     1     0     0
SMALL
bcc


@<TRIPOS>ATOM
      1 CL21         1.7350     2.9490    -0.3950 cl         1 TN3      -0.084400
      2 C14          1.7030     1.2230    -0.3680 ca         1 TN3      -0.016600
      3 C13          2.8860     0.5110    -0.3210 ca         1 TN3      -0.070000
      4 C10          2.8650    -0.8810    -0.3130 ca         1 TN3      -0.178600
      5 C11          4.1110    -1.7060    -0.2850 c          1 TN3       0.680700
      6 O13          4.1210    -2.8450    -0.7380 o          1 TN3      -0.603100
      7 N20          5.1960    -1.1360     0.2560 ns         1 TN3      -0.568900
      8 C12          6.4600    -1.8280     0.3430 c3         1 TN3       0.093300
      9 C9           1.6380    -1.5330    -0.3730 ca         1 TN3      -0.039000
     10 C8           0.4520    -0.8210    -0.4110 ca         1 TN3      -0.204000
     11 C7           0.4730     0.5680    -0.4090 ca         1 TN3       0.171100
     12 O9          -0.6280     1.3450    -0.4780 os         1 TN3      -0.215200
     13 C5          -1.8630     0.7740    -0.3020 ca         1 TN3       0.051100
     14 C6          -2.2840     0.4510     0.9920 ca         1 TN3       0.142100
     15 O8          -1.4180     0.6590     1.9920 oh         1 TN3      -0.472100
     16 C1          -3.5610    -0.0650     1.1740 ca         1 TN3      -0.218000
     17 C4          -2.6960     0.5830    -1.3850 ca         1 TN3      -0.082000
     18 C3          -3.9750     0.0710    -1.2090 ca         1 TN3      -0.151000
     19 C2          -4.3850    -0.2470     0.0740 ca         1 TN3       0.070400
     20 CL12        -5.9740    -0.8880     0.3240 cl         1 TN3      -0.098400
     21 H13          3.8170     1.0620    -0.3110 ha         1 TN3       0.146000
     22 H20          5.1070    -0.2650     0.7500 hn         1 TN3       0.316500
     23 H121         7.2010    -1.1380     0.7360 h1         1 TN3       0.041033
     24 H122         6.4090    -2.6940     1.0050 h1         1 TN3       0.041033
     25 H123         6.7920    -2.1660    -0.6380 h1         1 TN3       0.041033
     26 H9           1.6010    -2.6130    -0.3850 ha         1 TN3       0.157000
     27 H8          -0.4870    -1.3580    -0.4560 ha         1 TN3       0.149000
     28 HO8         -1.8000     0.3930     2.8370 ho         1 TN3       0.434000
     29 H1          -3.9070    -0.3180     2.1680 ha         1 TN3       0.152000
     30 H4          -2.3470     0.8420    -2.3760 ha         1 TN3       0.157000
     31 H3          -4.6280    -0.0750    -2.0570 ha         1 TN3       0.158000
@<TRIPOS>BOND
     1     1     2 1   
     2     2     3 ar  
     3     2    11 ar  
     4     3     4 ar  
     5     3    21 1   
     6     4     5 1   
     7     4     9 ar  
     8     5     6 2   
     9     5     7 1   
    10     7     8 1   
    11     7    22 1   
    12     8    23 1   
    13     8    24 1   
    14     8    25 1   
    15     9    10 ar  
    16     9    26 1   
    17    10    11 ar  
    18    10    27 1   
    19    11    12 1   
    20    12    13 1   
    21    13    14 ar  
    22    13    17 ar  
    23    14    15 1   
    24    14    16 ar  
    25    15    28 1   
    26    16    19 ar  
    27    16    29 1   
    28    17    18 ar  
    29    17    30 1   
    30    18    19 ar  
    31    18    31 1   
    32    19    20 1   
@<TRIPOS>SUBSTRUCTURE
     1 TN3         1 TEMP              0 ****  ****    0 ROOT
