@<TRIPOS>MOLECULE
TN3
   31    32     1     0     0
SMALL
No Charge or Current Charge


@<TRIPOS>ATOM
      1 Cl21         1.7860     2.9590    -0.1990 cl         1 TN3      -0.176000
      2 C14          1.7140     1.1990    -0.3030 ca         1 TN3       0.075000
      3 C13          2.8980     0.4570    -0.1450 ca         1 TN3      -0.052000
      4 C10          2.8790    -0.9590    -0.2240 ca         1 TN3      -0.178600
      5 C11          4.1310    -1.7950    -0.0600 c          1 TN3       0.613700
      6 O13          4.1110    -3.0160    -0.1320 o          1 TN3      -0.603100
      7 N20          5.3070    -1.1180     0.1770 ns         1 TN3      -0.501900
      8 C12          6.6100    -1.7640     0.3600 c3         1 TN3       0.093300
      9 C9           1.6460    -1.6040    -0.4680 ca         1 TN3      -0.021000
     10 C8           0.4630    -0.8620    -0.6250 ca         1 TN3      -0.186000
     11 C7           0.4900     0.5430    -0.5350 ca         1 TN3       0.171100
     12 O9          -0.6600     1.2890    -0.6990 os         1 TN3      -0.215200
     13 C5          -1.9130     0.7970    -0.4030 ca         1 TN3       0.051100
     14 C6          -2.2550     0.3910     0.9110 ca         1 TN3       0.142100
     15 O8          -1.3530     0.4830     1.9370 oh         1 TN3      -0.511100
     16 C1          -3.5450    -0.1030     1.1730 ca         1 TN3      -0.200000
     17 C4          -2.8670     0.7220    -1.4320 ca         1 TN3      -0.064000
     18 C3          -4.1550     0.2270    -1.1620 ca         1 TN3      -0.133000
     19 C2          -4.4890    -0.1860     0.1370 ca         1 TN3       0.162000
     20 Cl12        -6.1000    -0.8040     0.4730 cl         1 TN3      -0.190000
     21 H13          3.8200     1.0010     0.0360 ha         1 TN3       0.128000
     22 H20          5.2580    -0.1090     0.2260 hn         1 TN3       0.316500
     23 H121         7.3770    -0.9990     0.5330 h1         1 TN3       0.041033
     24 H122         6.5700    -2.4380     1.2250 h1         1 TN3       0.041033
     25 H123         6.8670    -2.3380    -0.5390 h1         1 TN3       0.041033
     26 H9           1.5990    -2.6900    -0.5390 ha         1 TN3       0.139000
     27 H8          -0.4700    -1.3840    -0.8210 ha         1 TN3       0.131000
     28 HO8         -1.7810     0.1690     2.7610 ho         1 TN3       0.473000
     29 H1          -3.8240    -0.4200     2.1740 ha         1 TN3       0.134000
     30 H4          -2.6060     1.0430    -2.4380 ha         1 TN3       0.139000
     31 H3          -4.8940     0.1630    -1.9580 ha         1 TN3       0.140000
@<TRIPOS>BOND
     1     1     2 1   
     2     2     3 ar  
     3     2    11 ar  
     4     3     4 ar  
     5     3    21 1   
     6     4     5 1   
     7     4     9 ar  
     8     5     6 2   
     9     5     7 1   
    10     7     8 1   
    11     7    22 1   
    12     8    23 1   
    13     8    24 1   
    14     8    25 1   
    15     9    10 ar  
    16     9    26 1   
    17    10    11 ar  
    18    10    27 1   
    19    11    12 1   
    20    12    13 1   
    21    13    14 ar  
    22    13    17 ar  
    23    14    15 1   
    24    14    16 ar  
    25    15    28 1   
    26    16    19 ar  
    27    16    29 1   
    28    17    18 ar  
    29    17    30 1   
    30    18    19 ar  
    31    18    31 1   
    32    19    20 1   
@<TRIPOS>SUBSTRUCTURE
     1 TN3         1 TEMP              0 ****  ****    0 ROOT
