@<TRIPOS>MOLECULE
TN4
   57    58     1     0     0
SMALL
No Charge or Current Charge


@<TRIPOS>ATOM
      1 C1          -1.5760    -1.5240    -1.4740 c6         1 TN4       0.190000
      2 C2          -1.4060    -1.0680     0.0280 c6         1 TN4      -0.025700
      3 C3          -0.4060    -2.0160     0.7700 c6         1 TN4       0.179300
      4 C4           1.0060    -2.0190     0.0590 c6         1 TN4       0.165300
      5 Cl4          6.1630     3.6500    -0.3390 cl         1 TN4      -0.208000
      6 C5           0.8300    -2.4790    -1.4100 c6         1 TN4      -0.095400
      7 C6          -0.1810    -1.5770    -2.1680 c6         1 TN4      -0.104400
      8 C11         -2.5070    -0.5810    -2.2870 c3         1 TN4      -0.121100
      9 O11         -2.1560    -2.8280    -1.5380 oh         1 TN4      -0.663000
     10 C21         -2.7470    -0.8650     0.8050 cx         1 TN4       0.123000
     11 C22         -3.4570     0.4580     0.6130 cx         1 TN4       0.084300
     12 C23         -4.9740     0.5960     0.7090 c3         1 TN4      -0.028200
     13 C24         -5.3860     2.0580     0.7150 c2         1 TN4      -0.218200
     14 C25         -5.5850     2.8550    -0.3530 c2         1 TN4      -0.114400
     15 C2A         -3.5740    -2.1180     1.1200 c3         1 TN4      -0.068100
     16 O2A         -2.7490     0.1570     1.8340 op         1 TN4      -0.420000
     17 C2B         -6.0160     4.3040    -0.2160 c3         1 TN4      -0.055900
     18 C2C         -5.4070     2.4410    -1.8060 c3         1 TN4      -0.055900
     19 O31         -0.2790    -1.6480     2.2030 os         1 TN4      -0.429000
     20 O41          1.6830    -0.7210     0.1040 os         1 TN4      -0.455100
     21 N42          3.3550     0.6970    -0.0910 ns         1 TN4      -0.478500
     22 C43          4.5720     1.3040    -0.2670 c          1 TN4       0.613100
     23 C44          4.5440     2.8330    -0.1050 c3         1 TN4       0.010600
     24 O4A          3.7730    -1.5480    -0.3700 o          1 TN4      -0.477000
     25 O4B          5.5920     0.6820    -0.5290 o          1 TN4      -0.488100
     26 H2          -0.9250    -0.0810     0.0030 hc         1 TN4       0.078700
     27 H3          -0.7980    -3.0420     0.7310 h1         1 TN4       0.062700
     28 H4           1.6390    -2.7550     0.5750 h1         1 TN4       0.075700
     29 H5           1.7940    -2.4820    -1.9330 hc         1 TN4       0.064200
     30 H5A          0.4790    -3.5190    -1.4170 hc         1 TN4       0.064200
     31 H6          -0.2850    -1.9400    -3.2000 hc         1 TN4       0.050200
     32 H6A          0.2300    -0.5600    -2.2490 hc         1 TN4       0.050200
     33 H11         -2.1770     0.4630    -2.2180 hc         1 TN4       0.045033
     34 H11A        -2.5160    -0.8480    -3.3510 hc         1 TN4       0.045033
     35 H11B        -3.5440    -0.6320    -1.9390 hc         1 TN4       0.045033
     36 HO11        -2.2590    -3.0450    -2.4890 ho         1 TN4       0.443000
     37 H22         -2.9810     1.2030    -0.0240 h1         1 TN4       0.073700
     38 H23         -5.4430     0.0650    -0.1270 hc         1 TN4       0.054200
     39 H23A        -5.3500     0.1110     1.6180 hc         1 TN4       0.054200
     40 H24         -5.5350     2.4570     1.7200 ha         1 TN4       0.178000
     41 H2A         -2.9420    -2.9790     1.3610 hc         1 TN4       0.047700
     42 H2AA        -4.2330    -1.9570     1.9810 hc         1 TN4       0.047700
     43 H2AB        -4.2030    -2.3940     0.2660 hc         1 TN4       0.047700
     44 H2B         -5.2740     4.9800    -0.6560 hc         1 TN4       0.038367
     45 H2BA        -6.9730     4.4800    -0.7220 hc         1 TN4       0.038367
     46 H2BB        -6.1420     4.5940     0.8340 hc         1 TN4       0.038367
     47 H2C         -5.0560     1.4100    -1.9170 hc         1 TN4       0.038367
     48 H2CA        -6.3520     2.5250    -2.3560 hc         1 TN4       0.038367
     49 H2CB        -4.6730     3.0830    -2.3080 hc         1 TN4       0.038367
     50 H31          0.4400    -2.0280     4.1610 h1         1 TN4       0.031367
     51 H31A         0.2020    -3.4810     3.1640 h1         1 TN4       0.031367
     52 H31B         1.5940    -2.4100     2.8660 h1         1 TN4       0.031367
     53 HN42         2.5810     1.3090     0.1180 hn         1 TN4       0.333500
     54 H44          4.1880     3.0730     0.9030 h1         1 TN4       0.083700
     55 H44A         3.8470     3.2510    -0.8400 h1         1 TN4       0.083700
     56 C31          0.5340    -2.4350     3.1470 c3         1 TN4       0.140900
     57 C41          3.0170    -0.6170    -0.1460 c          1 TN4       0.648100
@<TRIPOS>BOND
     1     1     2 1   
     2     1     7 1   
     3     1     8 1   
     4     1     9 1   
     5     2     3 1   
     6     2    10 1   
     7     2    26 1   
     8     3     4 1   
     9     3    19 1   
    10     3    27 1   
    11     4     6 1   
    12     4    20 1   
    13     4    28 1   
    14     5    23 1   
    15     6     7 1   
    16     6    29 1   
    17     6    30 1   
    18     7    31 1   
    19     7    32 1   
    20     8    33 1   
    21     8    34 1   
    22     8    35 1   
    23     9    36 1   
    24    10    11 1   
    25    10    15 1   
    26    10    16 1   
    27    11    12 1   
    28    11    16 1   
    29    11    37 1   
    30    12    13 1   
    31    12    38 1   
    32    12    39 1   
    33    13    14 2   
    34    13    40 1   
    35    14    17 1   
    36    14    18 1   
    37    15    41 1   
    38    15    42 1   
    39    15    43 1   
    40    17    44 1   
    41    17    45 1   
    42    17    46 1   
    43    18    47 1   
    44    18    48 1   
    45    18    49 1   
    46    19    56 1   
    47    20    57 1   
    48    21    22 1   
    49    21    53 1   
    50    21    57 1   
    51    22    23 1   
    52    22    25 2   
    53    23    54 1   
    54    23    55 1   
    55    24    57 2   
    56    50    56 1   
    57    51    56 1   
    58    52    56 1   
@<TRIPOS>SUBSTRUCTURE
     1 TN4         1 TEMP              0 ****  ****    0 ROOT
