@<TRIPOS>MOLECULE
TN4
   57    58     1     0     0
SMALL
abcg2


@<TRIPOS>ATOM
      1 C1          -1.4320    -1.8010    -1.5630 c6         1 TN4       0.190000
      2 C2          -1.2870    -1.1210    -0.1830 c6         1 TN4      -0.025700
      3 C3          -0.3220    -1.9230     0.7020 c6         1 TN4       0.179300
      4 C4           1.0550    -2.0610     0.0540 c6         1 TN4       0.165300
      5 CL4          5.9520     3.6090    -0.0870 cl         1 TN4      -0.208000
      6 C5           0.9490    -2.6630    -1.3350 c6         1 TN4      -0.095400
      7 C6          -0.0420    -1.9050    -2.2070 c6         1 TN4      -0.104400
      8 C11         -2.3610    -1.0250    -2.4920 c3         1 TN4      -0.121100
      9 O11         -1.9520    -3.1020    -1.3380 oh         1 TN4      -0.663000
     10 C21         -2.6070    -0.8410     0.5270 cx         1 TN4       0.123000
     11 C22         -3.2980     0.4070     0.1760 cx         1 TN4       0.084300
     12 C23         -4.7890     0.6240     0.2490 c3         1 TN4      -0.028200
     13 C24         -5.1100     2.0350     0.6420 c2         1 TN4      -0.218200
     14 C25         -5.6170     3.0010    -0.1290 c2         1 TN4      -0.114400
     15 C2A         -3.3840    -2.0140     1.0710 c3         1 TN4      -0.068100
     16 O2A         -2.5680     0.3010     1.3850 op         1 TN4      -0.420000
     17 C2B         -5.8650     4.3760     0.4190 c3         1 TN4      -0.055900
     18 C2C         -5.9820     2.8400    -1.5750 c3         1 TN4      -0.055900
     19 O31         -0.2400    -1.3000     1.9570 os         1 TN4      -0.429000
     20 O41          1.6000    -0.7300    -0.0080 os         1 TN4      -0.455100
     21 N42          3.1880     0.7830    -0.0510 ns         1 TN4      -0.478500
     22 C43          4.4390     1.3530    -0.0370 c          1 TN4       0.613100
     23 C44          4.3470     2.8680    -0.0990 c3         1 TN4       0.010600
     24 O4A          3.7310    -1.4480     0.0760 o          1 TN4      -0.477000
     25 O4B          5.4740     0.7460     0.0190 o          1 TN4      -0.488100
     26 H2          -0.8370    -0.1410    -0.3770 hc         1 TN4       0.078700
     27 H3          -0.7060    -2.9470     0.8150 h1         1 TN4       0.062700
     28 H4           1.7010    -2.6810     0.6800 h1         1 TN4       0.075700
     29 H5           1.9330    -2.6990    -1.8080 hc         1 TN4       0.064200
     30 H5A          0.6320    -3.7020    -1.2210 hc         1 TN4       0.064200
     31 H6          -0.1330    -2.4050    -3.1760 hc         1 TN4       0.050200
     32 H6A          0.3340    -0.9010    -2.4250 hc         1 TN4       0.050200
     33 H11         -2.0270     0.0040    -2.6300 hc         1 TN4       0.045033
     34 H11A        -2.3810    -1.4960    -3.4780 hc         1 TN4       0.045033
     35 H11B        -3.3840    -1.0040    -2.1160 hc         1 TN4       0.045033
     36 HO11        -2.0110    -3.5550    -2.1860 ho         1 TN4       0.443000
     37 H22         -2.8170     1.0450    -0.5680 h1         1 TN4       0.073700
     38 H23         -5.2130     0.3730    -0.7250 hc         1 TN4       0.054200
     39 H23A        -5.2410    -0.0640     0.9680 hc         1 TN4       0.054200
     40 H24         -4.8760     2.2840     1.6750 ha         1 TN4       0.178000
     41 H2A         -2.7380    -2.7080     1.6070 hc         1 TN4       0.047700
     42 H2AA        -4.1530    -1.6870     1.7680 hc         1 TN4       0.047700
     43 H2AB        -3.8670    -2.5690     0.2690 hc         1 TN4       0.047700
     44 H2B         -5.2970     5.1270    -0.1360 hc         1 TN4       0.038367
     45 H2BA        -6.9180     4.6500     0.3220 hc         1 TN4       0.038367
     46 H2BB        -5.5910     4.4580     1.4710 hc         1 TN4       0.038367
     47 H2C         -5.8270     1.8350    -1.9600 hc         1 TN4       0.038367
     48 H2CA        -7.0310     3.1010    -1.7350 hc         1 TN4       0.038367
     49 H2CB        -5.3970     3.5250    -2.1930 hc         1 TN4       0.038367
     50 H31          0.1450    -1.5760     3.9230 h1         1 TN4       0.031367
     51 H31A        -0.4790    -3.0180     3.1030 h1         1 TN4       0.031367
     52 H31B         1.2040    -2.5160     2.8670 h1         1 TN4       0.031367
     53 HN42         2.3900     1.4020    -0.1000 hn         1 TN4       0.333500
     54 H44          3.7830     3.2430     0.7560 h1         1 TN4       0.083700
     55 H44A         3.8270     3.1760    -1.0070 h1         1 TN4       0.083700
     56 C31          0.1800    -2.1480     2.9970 c3         1 TN4       0.140900
     57 C41          2.9120    -0.5720     0.0120 c          1 TN4       0.648100
@<TRIPOS>BOND
     1     1     2 1   
     2     1     7 1   
     3     1     8 1   
     4     1     9 1   
     5     2     3 1   
     6     2    10 1   
     7     2    26 1   
     8     3     4 1   
     9     3    19 1   
    10     3    27 1   
    11     4     6 1   
    12     4    20 1   
    13     4    28 1   
    14     5    23 1   
    15     6     7 1   
    16     6    29 1   
    17     6    30 1   
    18     7    31 1   
    19     7    32 1   
    20     8    33 1   
    21     8    34 1   
    22     8    35 1   
    23     9    36 1   
    24    10    11 1   
    25    10    15 1   
    26    10    16 1   
    27    11    12 1   
    28    11    16 1   
    29    11    37 1   
    30    12    13 1   
    31    12    38 1   
    32    12    39 1   
    33    13    14 2   
    34    13    40 1   
    35    14    17 1   
    36    14    18 1   
    37    15    41 1   
    38    15    42 1   
    39    15    43 1   
    40    17    44 1   
    41    17    45 1   
    42    17    46 1   
    43    18    47 1   
    44    18    48 1   
    45    18    49 1   
    46    19    56 1   
    47    20    57 1   
    48    21    22 1   
    49    21    53 1   
    50    21    57 1   
    51    22    23 1   
    52    22    25 2   
    53    23    54 1   
    54    23    55 1   
    55    24    57 2   
    56    50    56 1   
    57    51    56 1   
    58    52    56 1   
@<TRIPOS>SUBSTRUCTURE
     1 TN4         1 TEMP              0 ****  ****    0 ROOT
