@<TRIPOS>MOLECULE
TN5
   26    27     1     0     0
SMALL
No Charge or Current Charge


@<TRIPOS>ATOM
      1 Cl13         5.3940    -0.1440     0.2460 cl         1 TN5      -0.197000
      2 C12          3.6700    -0.3670    -0.0120 ca         1 TN5       0.158000
      3 C11          3.1810    -0.6030    -1.3060 ca         1 TN5      -0.133000
      4 C10          1.8020    -0.7830    -1.5150 ca         1 TN5      -0.073000
      5 C9           0.9130    -0.7190    -0.4280 ca         1 TN5       0.062100
      6 C8           1.4080    -0.4920     0.8810 ca         1 TN5       0.136100
      7 O2           0.5670    -0.4550     1.9590 oh         1 TN5      -0.508100
      8 C7           2.7880    -0.3140     1.0810 ca         1 TN5      -0.200000
      9 O1          -0.4320    -0.9010    -0.6650 os         1 TN5      -0.220200
     10 C1          -1.3750     0.0720    -0.3970 ca         1 TN5       0.098100
     11 C6          -1.0300     1.4410    -0.4030 ca         1 TN5      -0.123000
     12 C5          -2.0120     2.4130    -0.1380 ca         1 TN5      -0.148000
     13 C4          -3.3360     2.0300     0.1290 ca         1 TN5       0.271000
     14 N1          -4.2860     2.9820     0.3860 nv         1 TN5      -1.065000
     15 C3          -3.6830     0.6720     0.1280 ca         1 TN5      -0.148000
     16 C2          -2.7090    -0.3060    -0.1370 ca         1 TN5       0.138000
     17 Cl14        -3.1780    -2.0060    -0.1330 cl         1 TN5      -0.184000
     18 H11          3.8700    -0.6470    -2.1460 ha         1 TN5       0.137000
     19 H10          1.4210    -0.9660    -2.5170 ha         1 TN5       0.137000
     20 HO2          1.0980    -0.3030     2.7690 ho         1 TN5       0.470000
     21 H7           3.1860    -0.1370     2.0760 ha         1 TN5       0.132000
     22 H6          -0.0110     1.7550    -0.6160 ha         1 TN5       0.124000
     23 H5          -1.7390     3.4660    -0.1420 ha         1 TN5       0.116000
     24 HN11        -4.0640     3.9710     0.2750 hn         1 TN5       0.446000
     25 HN12        -5.2680     2.7230     0.4640 hn         1 TN5       0.446000
     26 H3          -4.7060     0.3690     0.3310 ha         1 TN5       0.129000
@<TRIPOS>BOND
     1     1     2 1   
     2     2     3 ar  
     3     2     8 ar  
     4     3     4 ar  
     5     3    18 1   
     6     4     5 ar  
     7     4    19 1   
     8     5     6 ar  
     9     5     9 1   
    10     6     7 1   
    11     6     8 ar  
    12     7    20 1   
    13     8    21 1   
    14     9    10 1   
    15    10    11 ar  
    16    10    16 ar  
    17    11    12 ar  
    18    11    22 1   
    19    12    13 ar  
    20    12    23 1   
    21    13    14 1   
    22    13    15 ar  
    23    14    24 1   
    24    14    25 1   
    25    15    16 ar  
    26    15    26 1   
    27    16    17 1   
@<TRIPOS>SUBSTRUCTURE
     1 TN5         1 TEMP              0 ****  ****    0 ROOT
