@<TRIPOS>MOLECULE
TN5
   26    27     1     0     0
SMALL
bcc


@<TRIPOS>ATOM
      1 CL13         5.2930    -0.0740     0.1840 cl         1 TN5      -0.105400
      2 C12          3.5930    -0.3210    -0.0470 ca         1 TN5       0.066400
      3 C11          3.1000    -0.5100    -1.3250 ca         1 TN5      -0.151000
      4 C10          1.7330    -0.6990    -1.4840 ca         1 TN5      -0.091000
      5 C9           0.8890    -0.7120    -0.3910 ca         1 TN5       0.062100
      6 C8           1.3990    -0.5290     0.9000 ca         1 TN5       0.136100
      7 O2           0.5300    -0.5590     1.9180 oh         1 TN5      -0.469100
      8 C7           2.7640    -0.3270     1.0650 ca         1 TN5      -0.218000
      9 O1          -0.4440    -0.9600    -0.5660 os         1 TN5      -0.220200
     10 C1          -1.3260     0.0530    -0.3210 ca         1 TN5       0.098100
     11 C6          -0.9950     1.3990    -0.3520 ca         1 TN5      -0.141000
     12 C5          -1.9530     2.3720    -0.1240 ca         1 TN5      -0.166000
     13 C4          -3.2830     2.0300     0.1370 ca         1 TN5       0.132600
     14 N1          -4.2280     2.9950     0.4240 nv         1 TN5      -0.816200
     15 C3          -3.6170     0.6730     0.1540 ca         1 TN5      -0.166000
     16 C2          -2.6480    -0.2900    -0.0660 ca         1 TN5       0.046400
     17 CL14        -3.0900    -1.9620    -0.0310 cl         1 TN5      -0.092400
     18 H11          3.7560    -0.5020    -2.1840 ha         1 TN5       0.155000
     19 H10          1.3200    -0.8470    -2.4730 ha         1 TN5       0.155000
     20 HO2          0.9840    -0.4340     2.7590 ho         1 TN5       0.431000
     21 H7           3.1750    -0.1820     2.0570 ha         1 TN5       0.150000
     22 H6           0.0230     1.7040    -0.5620 ha         1 TN5       0.142000
     23 H5          -1.6610     3.4150    -0.1550 ha         1 TN5       0.134000
     24 HN11        -4.0230     3.9150     0.0680 hn         1 TN5       0.390800
     25 HN12        -5.1830     2.7360     0.2350 hn         1 TN5       0.390800
     26 H3          -4.6370     0.3660     0.3520 ha         1 TN5       0.147000
@<TRIPOS>BOND
     1     1     2 1   
     2     2     3 ar  
     3     2     8 ar  
     4     3     4 ar  
     5     3    18 1   
     6     4     5 ar  
     7     4    19 1   
     8     5     6 ar  
     9     5     9 1   
    10     6     7 1   
    11     6     8 ar  
    12     7    20 1   
    13     8    21 1   
    14     9    10 1   
    15    10    11 ar  
    16    10    16 ar  
    17    11    12 ar  
    18    11    22 1   
    19    12    13 ar  
    20    12    23 1   
    21    13    14 1   
    22    13    15 ar  
    23    14    24 1   
    24    14    25 1   
    25    15    16 ar  
    26    15    26 1   
    27    16    17 1   
@<TRIPOS>SUBSTRUCTURE
     1 TN5         1 TEMP              0 ****  ****    0 ROOT
