@<TRIPOS>MOLECULE
TN6
   19    18     1     0     0
SMALL
abcg2


@<TRIPOS>ATOM
      1 C4           2.3810    -1.8480     0.0330 c3         1 TN6      -0.090600
      2 C3           1.0190    -1.3750     0.5260 c3         1 TN6       0.233300
      3 N            0.6370    -0.0940    -0.0200 n3         1 TN6      -0.734700
      4 P           -1.0900     0.1840    -0.1960 p5         1 TN6       1.231800
      5 O2          -1.6880     0.1800     1.2160 o          1 TN6      -0.930833
      6 OD          -1.1650     1.5500    -0.8840 o          1 TN6      -0.930833
      7 C1           1.3870     1.0240     0.5230 c3         1 TN6       0.233300
      8 C2           2.1470     1.7960    -0.5450 c3         1 TN6      -0.090600
      9 OXT         -1.5710    -0.9860    -1.0600 o          1 TN6      -0.930833
     10 H41C         3.1730    -1.1430     0.2990 hc         1 TN6       0.000200
     11 H42C         2.6460    -2.8140     0.4680 hc         1 TN6       0.000200
     12 H43C         2.3840    -1.9520    -1.0530 hc         1 TN6       0.000200
     13 H31C         0.2670    -2.1070     0.2260 h1         1 TN6       0.002200
     14 H32C         1.0240    -1.3780     1.6300 h1         1 TN6       0.002200
     15 H11C         0.7330     1.7180     1.0640 h1         1 TN6       0.002200
     16 H12C         2.1010     0.6630     1.2740 h1         1 TN6       0.002200
     17 H21C         2.8580     1.1490    -1.0610 hc         1 TN6       0.000200
     18 H22C         1.4460     2.1900    -1.2800 hc         1 TN6       0.000200
     19 H23C         2.7040     2.6350    -0.1190 hc         1 TN6       0.000200
@<TRIPOS>BOND
     1     1     2 1   
     2     1    10 1   
     3     1    11 1   
     4     1    12 1   
     5     2     3 1   
     6     2    13 1   
     7     2    14 1   
     8     3     4 1   
     9     3     7 1   
    10     4     5 1   
    11     4     6 1   
    12     4     9 1   
    13     7     8 1   
    14     7    15 1   
    15     7    16 1   
    16     8    17 1   
    17     8    18 1   
    18     8    19 1   
@<TRIPOS>SUBSTRUCTURE
     1 TN6         1 TEMP              0 ****  ****    0 ROOT
