@<TRIPOS>MOLECULE
TN6
   19    18     1     0     0
SMALL
No Charge or Current Charge


@<TRIPOS>ATOM
      1 C4           2.4500    -1.6980    -0.0030 c3         1 TN6      -0.090600
      2 C3           0.9830    -1.3520     0.3480 c3         1 TN6       0.233300
      3 N            0.4750    -0.0420    -0.1330 n3         1 TN6      -0.734700
      4 P           -1.1810     0.1310     0.0040 p5         1 TN6       1.231800
      5 O2          -1.5060     0.1280     1.4550 o          1 TN6      -0.930833
      6 OD          -1.5660     1.4270    -0.6160 o          1 TN6      -0.930833
      7 C1           1.2650     1.0890     0.4160 c3         1 TN6       0.233300
      8 C2           2.3590     1.6270    -0.5380 c3         1 TN6      -0.090600
      9 OXT         -1.8310    -1.0190    -0.6800 o          1 TN6      -0.930833
     10 H41C         3.1540    -1.0620     0.5460 hc         1 TN6       0.000200
     11 H42C         2.6630    -2.7380     0.2720 hc         1 TN6       0.000200
     12 H43C         2.6330    -1.5900    -1.0790 hc         1 TN6       0.000200
     13 H31C         0.3750    -2.1590    -0.0810 h1         1 TN6       0.002200
     14 H32C         0.8700    -1.4200     1.4380 h1         1 TN6       0.002200
     15 H11C         0.6150     1.9430     0.6490 h1         1 TN6       0.002200
     16 H12C         1.7330     0.8060     1.3690 h1         1 TN6       0.002200
     17 H21C         3.1140     0.8700    -0.7720 hc         1 TN6       0.000200
     18 H22C         1.9150     1.9730    -1.4790 hc         1 TN6       0.000200
     19 H23C         2.8730     2.4780    -0.0750 hc         1 TN6       0.000200
@<TRIPOS>BOND
     1     1     2 1   
     2     1    10 1   
     3     1    11 1   
     4     1    12 1   
     5     2     3 1   
     6     2    13 1   
     7     2    14 1   
     8     3     4 1   
     9     3     7 1   
    10     4     5 1   
    11     4     6 1   
    12     4     9 1   
    13     7     8 1   
    14     7    15 1   
    15     7    16 1   
    16     8    17 1   
    17     8    18 1   
    18     8    19 1   
@<TRIPOS>SUBSTRUCTURE
     1 TN6         1 TEMP              0 ****  ****    0 ROOT
