@<TRIPOS>MOLECULE
TN8
   39    40     1     0     0
SMALL
abcg2


@<TRIPOS>ATOM
      1 C1          -3.4930     6.5000    13.8290 c3         1 TN8       0.239800
      2 C6          -5.0190     2.2180    15.9470 ca         1 TN8      -0.267500
      3 C5          -5.9710     2.9820    15.2900 ca         1 TN8      -0.006000
      4 C4          -5.5530     3.9300    14.3680 ca         1 TN8      -0.126500
      5 C3          -4.2020     4.1240    14.1010 ca         1 TN8      -0.034300
      6 C2          -3.7550     5.1720    13.1230 c3         1 TN8      -0.056100
      7 C8          -3.2640     3.3470    14.7800 ca         1 TN8      -0.126500
      8 C9          -2.2080    10.8640    12.1560 ca         1 TN8       0.192400
      9 C10         -0.9280    11.3880    12.3520 ca         1 TN8      -0.119000
     10 C11         -0.7230    12.7570    12.4310 ca         1 TN8      -0.069000
     11 C12         -1.8060    13.6180    12.3110 ca         1 TN8       0.186000
     12 C13         -3.0850    13.1220    12.1070 ca         1 TN8      -0.069000
     13 C14         -3.2800    11.7510    12.0300 ca         1 TN8      -0.119000
     14 O1          -6.9020     1.2860    17.5030 o          1 TN8      -0.541000
     15 I           -1.5000    15.6960    12.4270 i          1 TN8      -0.320000
     16 C           -2.8220     8.7900    13.0120 c2         1 TN8       0.811100
     17 SE          -3.1600     9.6360    14.7160 sh         1 TN8      -0.482000
     18 N           -3.0370     7.4720    12.8600 nu         1 TN8      -0.931400
     19 C7          -3.6630     2.3940    15.7010 ca         1 TN8      -0.006000
     20 N1          -5.3760    -0.3860    16.2370 n8         1 TN8      -1.001100
     21 O           -4.5250     0.9030    18.1800 o          1 TN8      -0.541000
     22 H1          -2.7500     6.3480    14.6200 h1         1 TN8       0.049200
     23 H2          -4.4190     6.8350    14.3030 h1         1 TN8       0.049200
     24 H3          -7.0260     2.8470    15.4840 ha         1 TN8       0.140500
     25 H4          -6.2940     4.5250    13.8470 ha         1 TN8       0.121000
     26 H5          -4.5160     5.3170    12.3540 hc         1 TN8       0.063700
     27 H6          -2.8410     4.8430    12.6220 hc         1 TN8       0.063700
     28 H7          -2.2080     3.4860    14.5830 ha         1 TN8       0.121000
     29 H8          -0.0850    10.7160    12.4430 ha         1 TN8       0.122500
     30 H9           0.2780    13.1360    12.5880 ha         1 TN8       0.126000
     31 H10         -3.9330    13.7860    12.0060 ha         1 TN8       0.126000
     32 H11         -4.2770    11.3640    11.8580 ha         1 TN8       0.122500
     33 H12         -3.3980     8.4300    15.4890 hs         1 TN8       0.250800
     34 H13         -2.7790     7.1240    11.9470 hn         1 TN8       0.506000
     35 H14         -2.9210     1.7970    16.2150 ha         1 TN8       0.140500
     36 H15         -5.3470    -1.2080    16.8340 hn         1 TN8       0.473500
     37 H16         -6.1080    -0.4850    15.5400 hn         1 TN8       0.473500
     38 S           -5.5250     1.0000    17.1270 sy         1 TN8       1.124600
     39 N2          -2.3980     9.4940    12.0370 ne         1 TN8      -0.686100
@<TRIPOS>BOND
     1     1     6 1   
     2     1    18 1   
     3     1    22 1   
     4     1    23 1   
     5     2     3 ar  
     6     2    19 ar  
     7     2    38 1   
     8     3     4 ar  
     9     3    24 1   
    10     4     5 ar  
    11     4    25 1   
    12     5     6 1   
    13     5     7 ar  
    14     6    26 1   
    15     6    27 1   
    16     7    19 ar  
    17     7    28 1   
    18     8     9 ar  
    19     8    13 ar  
    20     8    39 1   
    21     9    10 ar  
    22     9    29 1   
    23    10    11 ar  
    24    10    30 1   
    25    11    12 ar  
    26    11    15 1   
    27    12    13 ar  
    28    12    31 1   
    29    13    32 1   
    30    14    38 2   
    31    16    17 1   
    32    16    18 1   
    33    16    39 2   
    34    17    33 1   
    35    18    34 1   
    36    19    35 1   
    37    20    36 1   
    38    20    37 1   
    39    20    38 1   
    40    21    38 2   
@<TRIPOS>SUBSTRUCTURE
     1 TN8         1 TEMP              0 ****  ****    0 ROOT
