@<TRIPOS>MOLECULE
TN8
   39    40     1     0     0
SMALL
No Charge or Current Charge


@<TRIPOS>ATOM
      1 C1          -3.2310     6.4400    13.7640 c3         1 TN8       0.239800
      2 C6          -5.0650     2.2350    16.0400 ca         1 TN8      -0.267500
      3 C5          -5.9270     3.0150    15.2410 ca         1 TN8      -0.006000
      4 C4          -5.3930     3.9200    14.3070 ca         1 TN8      -0.126500
      5 C3          -4.0000     4.0550    14.1590 ca         1 TN8      -0.034300
      6 C2          -3.4260     5.0410    13.1510 c3         1 TN8      -0.056100
      7 C8          -3.1430     3.2760    14.9600 ca         1 TN8      -0.126500
      8 C9          -2.5240    10.8930    12.1510 ca         1 TN8       0.192400
      9 C10         -1.2300    11.4450    12.1080 ca         1 TN8      -0.119000
     10 C11         -1.0500    12.8360    12.2270 ca         1 TN8      -0.069000
     11 C12         -2.1650    13.6760    12.3820 ca         1 TN8       0.186000
     12 C13         -3.4590    13.1300    12.4160 ca         1 TN8      -0.069000
     13 C14         -3.6380    11.7390    12.2980 ca         1 TN8      -0.119000
     14 O1          -7.1460     1.3700    17.4830 o          1 TN8      -0.541000
     15 I           -1.8890    15.8160    12.5640 i          1 TN8      -0.320000
     16 C           -2.4960     8.6910    12.9950 c2         1 TN8       0.811100
     17 SE          -1.9450     9.2000    14.5960 sh         1 TN8      -0.482000
     18 N           -2.6650     7.3650    12.7740 nu         1 TN8      -0.931400
     19 C7          -3.6690     2.3700    15.8960 ca         1 TN8      -0.006000
     20 N1          -5.7750    -0.3130    16.3700 n8         1 TN8      -1.001100
     21 O           -4.7730     0.8290    18.3090 o          1 TN8      -0.541000
     22 H1          -2.5650     6.3540    14.6330 h1         1 TN8       0.049200
     23 H2          -4.2010     6.8150    14.1170 h1         1 TN8       0.049200
     24 H3          -7.0090     2.9280    15.3390 ha         1 TN8       0.140500
     25 H4          -6.0660     4.5180    13.6970 ha         1 TN8       0.121000
     26 H5          -4.0890     5.1160    12.2810 hc         1 TN8       0.063700
     27 H6          -2.4620     4.6770    12.7750 hc         1 TN8       0.063700
     28 H7          -2.0640     3.3730    14.8580 ha         1 TN8       0.121000
     29 H8          -0.3670    10.7970    11.9850 ha         1 TN8       0.122500
     30 H9          -0.0510    13.2620    12.1970 ha         1 TN8       0.126000
     31 H10         -4.3190    13.7840    12.5330 ha         1 TN8       0.126000
     32 H11         -4.6390    11.3180    12.3230 ha         1 TN8       0.122500
     33 H12         -1.5080     7.9670    14.9260 hs         1 TN8       0.250800
     34 H13         -2.9290     7.2020    11.8070 hn         1 TN8       0.506000
     35 H14         -2.9890     1.7750    16.5050 ha         1 TN8       0.140500
     36 H15         -6.7380    -0.6050    16.5170 hn         1 TN8       0.473500
     37 H16         -5.7670     0.0280    15.4120 hn         1 TN8       0.473500
     38 S           -5.7360     1.0760    17.2350 sy         1 TN8       1.124600
     39 N2          -2.7110     9.5070    12.0260 ne         1 TN8      -0.686100
@<TRIPOS>BOND
     1     1     6 1   
     2     1    18 1   
     3     1    22 1   
     4     1    23 1   
     5     2     3 ar  
     6     2    19 ar  
     7     2    38 1   
     8     3     4 ar  
     9     3    24 1   
    10     4     5 ar  
    11     4    25 1   
    12     5     6 1   
    13     5     7 ar  
    14     6    26 1   
    15     6    27 1   
    16     7    19 ar  
    17     7    28 1   
    18     8     9 ar  
    19     8    13 ar  
    20     8    39 1   
    21     9    10 ar  
    22     9    29 1   
    23    10    11 ar  
    24    10    30 1   
    25    11    12 ar  
    26    11    15 1   
    27    12    13 ar  
    28    12    31 1   
    29    13    32 1   
    30    14    38 2   
    31    16    17 1   
    32    16    18 1   
    33    16    39 2   
    34    17    33 1   
    35    18    34 1   
    36    19    35 1   
    37    20    36 1   
    38    20    37 1   
    39    20    38 1   
    40    21    38 2   
@<TRIPOS>SUBSTRUCTURE
     1 TN8         1 TEMP              0 ****  ****    0 ROOT
