@<TRIPOS>MOLECULE
TN9
   70    72     1     0     0
SMALL
abcg2


@<TRIPOS>ATOM
      1 C3          14.0130   -21.1550     1.2080 cc         1 TN9       0.212900
      2 C4          14.4650   -20.7670    -0.0600 cc         1 TN9       0.210300
      3 C6          15.4810   -21.4160    -0.9350 c3         1 TN9       0.142500
      4 C8          16.2230   -23.5260    -1.8270 c3         1 TN9       0.150500
      5 C9          13.8820   -22.9210    -1.9870 c3         1 TN9       0.156500
      6 C10         17.2900   -23.8130    -0.8250 cc         1 TN9       0.198300
      7 C11         17.1690   -24.1210     0.5070 cd         1 TN9      -0.194000
      8 C15         13.9120   -22.3490    -3.3690 cc         1 TN9       0.152300
      9 C19         13.7060   -21.0600    -3.7960 cd         1 TN9      -0.192000
     10 C21         15.3180   -19.5270    -6.3240 c3         1 TN9       0.143600
     11 C23         15.2030   -18.8060    -8.5750 c3         1 TN9       0.155600
     12 C24         15.4820   -17.6050    -9.4410 c3         1 TN9       0.160600
     13 C26         17.1580   -16.1430   -10.1530 c3         1 TN9       0.161600
     14 C27         18.6400   -15.8730   -10.0980 c3         1 TN9       0.163600
     15 C29         20.3920   -15.2380    -8.6790 c3         1 TN9       0.163600
     16 C30         20.7160   -14.8190    -7.2600 c3         1 TN9      -0.073400
     17 C31         20.0520   -13.5180    -6.8220 c3         1 TN9      -0.072400
     18 C32         20.4840   -13.0920    -5.4240 c3         1 TN9      -0.074400
     19 C33         19.7750   -11.8470    -4.9000 c3         1 TN9      -0.072400
     20 C34         20.0690   -10.5850    -5.7000 c3         1 TN9      -0.089100
     21 N1          13.0260   -19.4340     0.6220 na         1 TN9       0.108600
     22 N2          13.1020   -20.2850     1.6110 nd         1 TN9      -0.499800
     23 N5          13.8080   -19.6680    -0.4000 nd         1 TN9      -0.512800
     24 N7          15.1210   -22.7920    -1.2310 n3         1 TN9      -0.730600
     25 N12         18.4360   -24.3100     0.9040 na         1 TN9      -0.013200
     26 N13         19.2890   -24.1390    -0.0850 nd         1 TN9      -0.202800
     27 N14         18.6040   -23.8350    -1.1350 nc         1 TN9      -0.360000
     28 N16         14.2160   -23.0910    -4.4590 nc         1 TN9      -0.356000
     29 N17         14.2070   -22.3410    -5.5060 nd         1 TN9      -0.207800
     30 N18         13.8970   -21.1140    -5.1240 na         1 TN9       0.124800
     31 O22         15.3590   -18.4520    -7.2180 os         1 TN9      -0.434000
     32 O25         16.8400   -17.2580    -9.3600 os         1 TN9      -0.434000
     33 O28         19.0120   -15.4890    -8.8020 os         1 TN9      -0.444000
     34 H1          14.3050   -21.9970     1.8150 h4         1 TN9       0.053100
     35 H2          16.4410   -21.4240    -0.4130 h1         1 TN9       0.056700
     36 H3          15.6280   -20.8050    -1.8370 h1         1 TN9       0.056700
     37 H4          15.8270   -24.4700    -2.2110 h1         1 TN9       0.065200
     38 H5          16.6730   -23.0120    -2.6890 h1         1 TN9       0.065200
     39 H6          13.0780   -22.4550    -1.4150 h1         1 TN9       0.068700
     40 H7          13.6390   -23.9830    -2.0520 h1         1 TN9       0.068700
     41 H8          16.3230   -24.2070     1.1670 h4         1 TN9       0.173000
     42 H9          13.4430   -20.1540    -3.2750 h4         1 TN9       0.178000
     43 H10         13.2630   -19.2330    -5.6940 h1         1 TN9       0.073700
     44 H11         13.4340   -20.4040    -7.0000 h1         1 TN9       0.073700
     45 H12         15.7340   -19.1750    -5.3780 h1         1 TN9       0.064700
     46 H13         15.9420   -20.3620    -6.6690 h1         1 TN9       0.064700
     47 H14         14.1830   -19.1460    -8.7930 h1         1 TN9       0.034200
     48 H15         15.8800   -19.6290    -8.8420 h1         1 TN9       0.034200
     49 H16         14.8380   -16.7680    -9.1360 h1         1 TN9       0.028700
     50 H17         15.2010   -17.8590   -10.4740 h1         1 TN9       0.028700
     51 H18         16.6020   -15.2530    -9.8240 h1         1 TN9       0.027200
     52 H19         16.8850   -16.3160   -11.2040 h1         1 TN9       0.027200
     53 H20         18.8680   -15.0820   -10.8280 h1         1 TN9       0.026700
     54 H21         19.1930   -16.7680   -10.4200 h1         1 TN9       0.026700
     55 H22         20.9680   -16.1370    -8.9420 h1         1 TN9       0.018200
     56 H23         20.7030   -14.4490    -9.3800 h1         1 TN9       0.018200
     57 H24         20.4490   -15.6250    -6.5690 hc         1 TN9       0.046700
     58 H25         21.8020   -14.7100    -7.1930 hc         1 TN9       0.046700
     59 H26         20.2970   -12.7350    -7.5470 hc         1 TN9       0.044700
     60 H27         18.9640   -13.6260    -6.8450 hc         1 TN9       0.044700
     61 H28         20.3020   -13.9200    -4.7310 hc         1 TN9       0.035200
     62 H29         21.5670   -12.9240    -5.4140 hc         1 TN9       0.035200
     63 H30         18.6950   -12.0270    -4.8840 hc         1 TN9       0.036700
     64 H31         20.0690   -11.6860    -3.8590 hc         1 TN9       0.036700
     65 H32         19.5950    -9.7120    -5.2490 hc         1 TN9       0.030033
     66 H33         21.1420   -10.3910    -5.7460 hc         1 TN9       0.030033
     67 H34         19.7040   -10.6570    -6.7260 hc         1 TN9       0.030033
     68 H35         12.3990   -18.6430     0.6440 hn         1 TN9       0.400000
     69 H37         18.7730   -24.5440     1.8270 hn         1 TN9       0.376000
     70 C20         13.8910   -20.0310    -6.0850 c3         1 TN9       0.035600
@<TRIPOS>BOND
     1     1     2 1   
     2     1    22 2   
     3     1    34 1   
     4     2     3 1   
     5     2    23 2   
     6     3    24 1   
     7     3    35 1   
     8     3    36 1   
     9     4     6 1   
    10     4    24 1   
    11     4    37 1   
    12     4    38 1   
    13     5     8 1   
    14     5    24 1   
    15     5    39 1   
    16     5    40 1   
    17     6     7 2   
    18     6    27 1   
    19     7    25 1   
    20     7    41 1   
    21     8     9 2   
    22     8    28 1   
    23     9    30 1   
    24     9    42 1   
    25    10    31 1   
    26    10    45 1   
    27    10    46 1   
    28    10    70 1   
    29    11    12 1   
    30    11    31 1   
    31    11    47 1   
    32    11    48 1   
    33    12    32 1   
    34    12    49 1   
    35    12    50 1   
    36    13    14 1   
    37    13    32 1   
    38    13    51 1   
    39    13    52 1   
    40    14    33 1   
    41    14    53 1   
    42    14    54 1   
    43    15    16 1   
    44    15    33 1   
    45    15    55 1   
    46    15    56 1   
    47    16    17 1   
    48    16    57 1   
    49    16    58 1   
    50    17    18 1   
    51    17    59 1   
    52    17    60 1   
    53    18    19 1   
    54    18    61 1   
    55    18    62 1   
    56    19    20 1   
    57    19    63 1   
    58    19    64 1   
    59    20    65 1   
    60    20    66 1   
    61    20    67 1   
    62    21    22 1   
    63    21    23 1   
    64    21    68 1   
    65    25    26 1   
    66    25    69 1   
    67    26    27 2   
    68    28    29 2   
    69    29    30 1   
    70    30    70 1   
    71    43    70 1   
    72    44    70 1   
@<TRIPOS>SUBSTRUCTURE
     1 TN9         1 TEMP              0 ****  ****    0 ROOT
