@<TRIPOS>MOLECULE
TN9
   70    72     1     0     0
SMALL
No Charge or Current Charge


@<TRIPOS>ATOM
      1 C3          13.9560   -20.9550     1.1550 cc         1 TN9       0.212900
      2 C4          14.5080   -20.6730    -0.0990 cc         1 TN9       0.210300
      3 C6          15.4730   -21.6010    -0.8060 c3         1 TN9       0.142500
      4 C8          15.9840   -23.9160    -1.5810 c3         1 TN9       0.150500
      5 C9          13.7000   -22.9850    -1.9150 c3         1 TN9       0.156500
      6 C10         17.1260   -24.1700    -0.6160 cc         1 TN9       0.198300
      7 C11         17.0470   -24.5070     0.7000 cd         1 TN9      -0.194000
      8 C15         13.8700   -22.4860    -3.3380 cc         1 TN9       0.152300
      9 C19         13.8210   -21.2020    -3.7850 cd         1 TN9      -0.192000
     10 C21         15.5440   -19.7120    -6.3200 c3         1 TN9       0.143600
     11 C23         15.2410   -18.8250    -8.5870 c3         1 TN9       0.155600
     12 C24         15.3920   -17.5090    -9.3870 c3         1 TN9       0.160600
     13 C26         17.0670   -15.9610   -10.2090 c3         1 TN9       0.161600
     14 C27         18.5960   -15.7210   -10.2340 c3         1 TN9       0.163600
     15 C29         20.4430   -15.0750    -8.8100 c3         1 TN9       0.163600
     16 C30         20.7520   -14.6600    -7.3560 c3         1 TN9      -0.073400
     17 C31         20.0970   -13.3230    -6.9320 c3         1 TN9      -0.072400
     18 C32         20.4550   -12.9100    -5.4850 c3         1 TN9      -0.074400
     19 C33         19.7550   -11.6180    -4.9990 c3         1 TN9      -0.072400
     20 C34         20.1720   -10.3410    -5.7580 c3         1 TN9      -0.089100
     21 N1          13.2410   -19.1150     0.4800 na         1 TN9       0.108600
     22 N2          13.1510   -19.9980     1.5590 nd         1 TN9      -0.499800
     23 N5          14.0820   -19.5170    -0.5610 nd         1 TN9      -0.512800
     24 N7          14.9410   -22.9710    -1.0790 n3         1 TN9      -0.730600
     25 N12         18.3680   -24.6120     1.0880 na         1 TN9      -0.013200
     26 N13         19.1970   -24.3450     0.0260 nd         1 TN9      -0.202800
     27 N14         18.4340   -24.0780    -1.0040 nc         1 TN9      -0.360000
     28 N16         14.0950   -23.3430    -4.3810 nc         1 TN9      -0.356000
     29 N17         14.2010   -22.6410    -5.4800 nd         1 TN9      -0.207800
     30 N18         14.0370   -21.3230    -5.1370 na         1 TN9       0.124800
     31 O22         15.5330   -18.5630    -7.1950 os         1 TN9      -0.434000
     32 O25         16.7910   -17.1780    -9.4860 os         1 TN9      -0.434000
     33 O28         19.0320   -15.3250    -8.9180 os         1 TN9      -0.444000
     34 H1          14.1180   -21.8250     1.7770 h4         1 TN9       0.053100
     35 H2          16.3690   -21.6660    -0.1740 h1         1 TN9       0.056700
     36 H3          15.7920   -21.1250    -1.7440 h1         1 TN9       0.056700
     37 H4          15.5280   -24.8900    -1.8010 h1         1 TN9       0.065200
     38 H5          16.4040   -23.5460    -2.5270 h1         1 TN9       0.065200
     39 H6          12.9180   -22.3790    -1.4390 h1         1 TN9       0.068700
     40 H7          13.2990   -24.0070    -1.9600 h1         1 TN9       0.068700
     41 H8          16.1980   -24.6650     1.3530 h4         1 TN9       0.173000
     42 H9          13.6620   -20.2620    -3.2720 h4         1 TN9       0.178000
     43 H10         13.4540   -19.4300    -5.8090 h1         1 TN9       0.073700
     44 H11         13.7240   -20.6350    -7.0850 h1         1 TN9       0.073700
     45 H12         15.9400   -19.4230    -5.3370 h1         1 TN9       0.064700
     46 H13         16.1900   -20.5060    -6.7180 h1         1 TN9       0.064700
     47 H14         14.2120   -19.1860    -8.7070 h1         1 TN9       0.034200
     48 H15         15.9200   -19.5820    -8.9980 h1         1 TN9       0.034200
     49 H16         14.8310   -16.7090    -8.8870 h1         1 TN9       0.028700
     50 H17         14.9650   -17.6530   -10.3880 h1         1 TN9       0.028700
     51 H18         16.5680   -15.1020    -9.7400 h1         1 TN9       0.027200
     52 H19         16.7050   -16.0440   -11.2420 h1         1 TN9       0.027200
     53 H20         18.8170   -14.9290   -10.9610 h1         1 TN9       0.026700
     54 H21         19.1060   -16.6370   -10.5600 h1         1 TN9       0.026700
     55 H22         21.0130   -15.9810    -9.0560 h1         1 TN9       0.018200
     56 H23         20.7520   -14.2760    -9.4960 h1         1 TN9       0.018200
     57 H24         20.4300   -15.4600    -6.6790 hc         1 TN9       0.046700
     58 H25         21.8400   -14.5740    -7.2470 hc         1 TN9       0.046700
     59 H26         20.4160   -12.5390    -7.6290 hc         1 TN9       0.044700
     60 H27         19.0070   -13.4080    -7.0210 hc         1 TN9       0.044700
     61 H28         20.1800   -13.7270    -4.8070 hc         1 TN9       0.035200
     62 H29         21.5420   -12.7850    -5.4000 hc         1 TN9       0.035200
     63 H30         18.6680   -11.7430    -5.0710 hc         1 TN9       0.036700
     64 H31         19.9840   -11.4790    -3.9350 hc         1 TN9       0.036700
     65 H32         19.7030    -9.4600    -5.3050 hc         1 TN9       0.030033
     66 H33         21.2600   -10.2060    -5.7230 hc         1 TN9       0.030033
     67 H34         19.8600   -10.3860    -6.8080 hc         1 TN9       0.030033
     68 H35         12.7260   -18.2300     0.4550 hn         1 TN9       0.400000
     69 H37         18.7340   -24.8480     2.0080 hn         1 TN9       0.376000
     70 C20         14.1080   -20.2480    -6.1340 c3         1 TN9       0.035600
@<TRIPOS>BOND
     1     1     2 1   
     2     1    22 2   
     3     1    34 1   
     4     2     3 1   
     5     2    23 2   
     6     3    24 1   
     7     3    35 1   
     8     3    36 1   
     9     4     6 1   
    10     4    24 1   
    11     4    37 1   
    12     4    38 1   
    13     5     8 1   
    14     5    24 1   
    15     5    39 1   
    16     5    40 1   
    17     6     7 2   
    18     6    27 1   
    19     7    25 1   
    20     7    41 1   
    21     8     9 2   
    22     8    28 1   
    23     9    30 1   
    24     9    42 1   
    25    10    31 1   
    26    10    45 1   
    27    10    46 1   
    28    10    70 1   
    29    11    12 1   
    30    11    31 1   
    31    11    47 1   
    32    11    48 1   
    33    12    32 1   
    34    12    49 1   
    35    12    50 1   
    36    13    14 1   
    37    13    32 1   
    38    13    51 1   
    39    13    52 1   
    40    14    33 1   
    41    14    53 1   
    42    14    54 1   
    43    15    16 1   
    44    15    33 1   
    45    15    55 1   
    46    15    56 1   
    47    16    17 1   
    48    16    57 1   
    49    16    58 1   
    50    17    18 1   
    51    17    59 1   
    52    17    60 1   
    53    18    19 1   
    54    18    61 1   
    55    18    62 1   
    56    19    20 1   
    57    19    63 1   
    58    19    64 1   
    59    20    65 1   
    60    20    66 1   
    61    20    67 1   
    62    21    22 1   
    63    21    23 1   
    64    21    68 1   
    65    25    26 1   
    66    25    69 1   
    67    26    27 2   
    68    28    29 2   
    69    29    30 1   
    70    30    70 1   
    71    43    70 1   
    72    44    70 1   
@<TRIPOS>SUBSTRUCTURE
     1 TN9         1 TEMP              0 ****  ****    0 ROOT
