@<TRIPOS>MOLECULE
TNA
   43    42     1     0     0
SMALL
No Charge or Current Charge


@<TRIPOS>ATOM
      1 O8          -6.7050    -0.6370     2.4470 o          1 TNA      -0.784500
      2 C12         -6.1910    -1.4940     1.7440 c          1 TNA       0.710000
      3 O7          -6.7770    -2.5030     1.3840 o          1 TNA      -0.784500
      4 C10         -4.7540    -1.2670     1.2440 c3         1 TNA      -0.193400
      5 C9          -4.7750    -0.5030    -0.1080 c3         1 TNA      -0.027400
      6 C8          -3.3800    -0.3140    -0.7680 c3         1 TNA       0.030500
      7 C11         -3.5500     0.1510    -2.2730 c          1 TNA       0.695000
      8 O6          -3.9840     1.2750    -2.5000 o          1 TNA      -0.770000
      9 O5          -3.1860    -0.6060    -3.1640 o          1 TNA      -0.770000
     10 N3          -2.5220     0.5940     0.0730 n7         1 TNA      -0.850400
     11 C7          -1.1010     0.6730    -0.3260 c3         1 TNA       0.160800
     12 C6          -0.3260     1.6320     0.6070 c3         1 TNA      -0.051400
     13 C4           1.1530     1.8540     0.1900 c3         1 TNA       0.035500
     14 C5           1.7640     3.0830     0.9790 c          1 TNA       0.693000
     15 O3           2.0660     4.0890     0.3500 o          1 TNA      -0.764000
     16 O4           1.9760     2.9680     2.1810 o          1 TNA      -0.764000
     17 N2           1.9290     0.5730     0.3310 n7         1 TNA      -0.850400
     18 C3           3.2860     0.5880    -0.2520 c3         1 TNA       0.166800
     19 C2           3.9800    -0.7790    -0.0510 c3         1 TNA      -0.057400
     20 C1           5.4530    -0.8220    -0.5400 c3         1 TNA       0.017500
     21 N1           5.5380    -0.6150    -2.0320 n8         1 TNA      -0.981200
     22 C            6.1790    -2.1150     0.0220 c          1 TNA       0.691000
     23 O2           7.0290    -1.9720     0.8910 o          1 TNA      -0.761500
     24 O1           5.9530    -3.1930    -0.5120 o          1 TNA      -0.761500
     25 H10         -4.2020    -0.6320     1.9470 hc         1 TNA       0.025200
     26 H10A        -4.2650    -2.2270     1.0380 hc         1 TNA       0.025200
     27 H9          -5.4090    -1.0630    -0.8070 hc         1 TNA       0.026700
     28 H9A         -5.2530     0.4740     0.0300 hc         1 TNA       0.026700
     29 H8          -2.9100    -1.3070    -0.8060 h1         1 TNA       0.031700
     30 HN3         -2.9190     1.5380     0.0050 hn         1 TNA       0.399000
     31 H7          -0.6410    -0.3240    -0.2860 h1         1 TNA       0.024200
     32 H7A         -1.0170     1.0390    -1.3590 h1         1 TNA       0.024200
     33 H6          -0.8320     2.6050     0.6030 hc         1 TNA       0.031200
     34 H6A         -0.3670     1.2590     1.6370 hc         1 TNA       0.031200
     35 H4           1.1420     2.1460    -0.8690 h1         1 TNA       0.036700
     36 HN2          2.0240     0.3840     1.3360 hn         1 TNA       0.404000
     37 H3           3.2310     0.8150    -1.3260 h1         1 TNA       0.019700
     38 H3A          3.8950     1.3690     0.2250 h1         1 TNA       0.019700
     39 H2           3.9680    -1.0180     1.0190 hc         1 TNA       0.040700
     40 H2A          3.4020    -1.5630    -0.5550 hc         1 TNA       0.040700
     41 H1           5.9660     0.0350    -0.0810 h1         1 TNA       0.034700
     42 HN1          6.5260    -0.5940    -2.3100 hn         1 TNA       0.365000
     43 HN1A         5.1820    -1.4610    -2.4930 hn         1 TNA       0.365000
@<TRIPOS>BOND
     1     1     2 1   
     2     2     3 1   
     3     2     4 1   
     4     4     5 1   
     5     4    25 1   
     6     4    26 1   
     7     5     6 1   
     8     5    27 1   
     9     5    28 1   
    10     6     7 1   
    11     6    10 1   
    12     6    29 1   
    13     7     8 1   
    14     7     9 1   
    15    10    11 1   
    16    10    30 1   
    17    11    12 1   
    18    11    31 1   
    19    11    32 1   
    20    12    13 1   
    21    12    33 1   
    22    12    34 1   
    23    13    14 1   
    24    13    17 1   
    25    13    35 1   
    26    14    15 1   
    27    14    16 1   
    28    17    18 1   
    29    17    36 1   
    30    18    19 1   
    31    18    37 1   
    32    18    38 1   
    33    19    20 1   
    34    19    39 1   
    35    19    40 1   
    36    20    21 1   
    37    20    22 1   
    38    20    41 1   
    39    21    42 1   
    40    21    43 1   
    41    22    23 1   
    42    22    24 1   
@<TRIPOS>SUBSTRUCTURE
     1 TNA         1 TEMP              0 ****  ****    0 ROOT
