@<TRIPOS>MOLECULE
TNA
   43    42     1     0     0
SMALL
abcg2


@<TRIPOS>ATOM
      1 O8          -6.6810    -1.4390     1.3790 o          1 TNA      -0.784500
      2 C12         -5.5730    -1.8530     1.7730 c          1 TNA       0.710000
      3 O7          -5.3780    -2.6080     2.7520 o          1 TNA      -0.784500
      4 C10         -4.3160    -1.4030     1.0130 c3         1 TNA      -0.193400
      5 C9          -4.5440    -0.5560    -0.2280 c3         1 TNA      -0.027400
      6 C8          -3.2370    -0.1090    -0.8930 c3         1 TNA       0.030500
      7 C11         -3.5610     0.5540    -2.2540 c          1 TNA       0.695000
      8 O6          -3.5450     1.8020    -2.3000 o          1 TNA      -0.770000
      9 O5          -3.8600    -0.2150    -3.1920 o          1 TNA      -0.770000
     10 N3          -2.4700     0.7320     0.0090 n7         1 TNA      -0.850400
     11 C7          -1.0660     0.8210    -0.3460 c3         1 TNA       0.160800
     12 C6          -0.3320     1.8060     0.5500 c3         1 TNA      -0.051400
     13 C4           1.1620     1.9150     0.2330 c3         1 TNA       0.035500
     14 C5           1.7600     3.0940     1.0420 c          1 TNA       0.693000
     15 O3           1.5210     4.2400     0.6070 o          1 TNA      -0.764000
     16 O4           2.3910     2.8130     2.0810 o          1 TNA      -0.764000
     17 N2           1.8180     0.6380     0.4450 n7         1 TNA      -0.850400
     18 C3           3.1300     0.5560    -0.1690 c3         1 TNA       0.166800
     19 C2           3.7780    -0.7910     0.1070 c3         1 TNA      -0.057400
     20 C1           5.1650    -0.9420    -0.5170 c3         1 TNA       0.017500
     21 N1           5.0760    -0.7940    -1.9630 n8         1 TNA      -0.981200
     22 C            5.8420    -2.2450    -0.0190 c          1 TNA       0.691000
     23 O2           5.9930    -2.3420     1.2180 o          1 TNA      -0.761500
     24 O1           6.1910    -3.0840    -0.8730 o          1 TNA      -0.761500
     25 H10         -3.6720    -0.8530     1.7060 hc         1 TNA       0.025200
     26 H10A        -3.7400    -2.2960     0.7420 hc         1 TNA       0.025200
     27 H9          -5.1340    -1.1150    -0.9570 hc         1 TNA       0.026700
     28 H9A         -5.1360     0.3300     0.0280 hc         1 TNA       0.026700
     29 H8          -2.6430    -1.0100    -1.0920 h1         1 TNA       0.031700
     30 HN3         -2.8650     1.6650    -0.0600 hn         1 TNA       0.399000
     31 H7          -0.6130    -0.1680    -0.2330 h1         1 TNA       0.024200
     32 H7A         -0.9050     1.1150    -1.3960 h1         1 TNA       0.024200
     33 H6          -0.7840     2.7960     0.4400 hc         1 TNA       0.031200
     34 H6A         -0.4680     1.5150     1.5980 hc         1 TNA       0.031200
     35 H4           1.2540     2.1580    -0.8330 h1         1 TNA       0.036700
     36 HN2          1.9350     0.5250     1.4470 hn         1 TNA       0.404000
     37 H3           3.0130     0.6910    -1.2480 h1         1 TNA       0.019700
     38 H3A          3.8140     1.3520     0.1680 h1         1 TNA       0.019700
     39 H2           3.8660    -0.9360     1.1860 hc         1 TNA       0.040700
     40 H2A          3.1210    -1.5890    -0.2610 hc         1 TNA       0.040700
     41 H1           5.7800    -0.1120    -0.1440 h1         1 TNA       0.034700
     42 HN1          5.9900    -0.9720    -2.3600 hn         1 TNA       0.365000
     43 HN1A         4.5010    -1.5490    -2.3220 hn         1 TNA       0.365000
@<TRIPOS>BOND
     1     1     2 1   
     2     2     3 1   
     3     2     4 1   
     4     4     5 1   
     5     4    25 1   
     6     4    26 1   
     7     5     6 1   
     8     5    27 1   
     9     5    28 1   
    10     6     7 1   
    11     6    10 1   
    12     6    29 1   
    13     7     8 1   
    14     7     9 1   
    15    10    11 1   
    16    10    30 1   
    17    11    12 1   
    18    11    31 1   
    19    11    32 1   
    20    12    13 1   
    21    12    33 1   
    22    12    34 1   
    23    13    14 1   
    24    13    17 1   
    25    13    35 1   
    26    14    15 1   
    27    14    16 1   
    28    17    18 1   
    29    17    36 1   
    30    18    19 1   
    31    18    37 1   
    32    18    38 1   
    33    19    20 1   
    34    19    39 1   
    35    19    40 1   
    36    20    21 1   
    37    20    22 1   
    38    20    41 1   
    39    21    42 1   
    40    21    43 1   
    41    22    23 1   
    42    22    24 1   
@<TRIPOS>SUBSTRUCTURE
     1 TNA         1 TEMP              0 ****  ****    0 ROOT
