@<TRIPOS>MOLECULE
TNB
   29    29     1     0     0
SMALL
No Charge or Current Charge


@<TRIPOS>ATOM
      1 CA           7.2170     7.1210     4.1550 c3         1 TNB       0.021500
      2 C            6.2900     6.7580     2.9210 c          1 TNB       0.939600
      3 O            6.8100     6.3010     1.9060 o          1 TNB      -0.807300
      4 OXT          5.0770     6.9120     3.0320 o          1 TNB      -0.807300
      5 N            7.8840     5.9700     4.8810 n8         1 TNB      -0.870800
      6 CB           8.2710     8.1770     3.7390 c3         1 TNB       0.006700
      7 SG           9.1970     8.8330     5.2040 ss         1 TNB      -0.244000
      8 C1          10.3290    10.0150     4.4600 ca         1 TNB       0.173900
      9 C2           9.8500    11.2330     3.9250 ca         1 TNB      -0.186200
     10 C3          10.7290    12.1090     3.2560 ca         1 TNB       0.009500
     11 C4          12.0960    11.7860     3.1200 ca         1 TNB      -0.211200
     12 C5          12.5760    10.5760     3.6660 ca         1 TNB       0.009500
     13 C6          11.7000     9.6980     4.3360 ca         1 TNB      -0.186200
     14 N2           8.4240    11.6240     4.0490 no         1 TNB       0.317200
     15 N4          13.0270    12.7180     2.4110 no         1 TNB       0.326200
     16 N6          12.2490     8.4350     4.8870 no         1 TNB       0.317200
     17 O21          7.9380    11.6770     5.1810 o          1 TNB      -0.171000
     18 O22          7.8580    12.0340     3.0340 o          1 TNB      -0.171000
     19 O41         14.2140    12.3960     2.3190 o          1 TNB      -0.202000
     20 O42         12.5640    13.7640     1.9500 o          1 TNB      -0.202000
     21 O61         12.1210     8.2340     6.0970 o          1 TNB      -0.171000
     22 O62         12.9660     7.7590     4.1460 o          1 TNB      -0.171000
     23 HA           6.5540     7.6090     4.8830 h1         1 TNB       0.067700
     24 H            8.5430     6.3520     5.5670 hn         1 TNB       0.329800
     25 H2           8.4740     5.4520     4.2200 hn         1 TNB       0.329800
     26 HB2          8.9860     7.7360     3.0320 h1         1 TNB       0.083200
     27 HB3          7.7680     9.0120     3.2360 h1         1 TNB       0.083200
     28 H3          10.3410    13.0430     2.8490 ha         1 TNB       0.194500
     29 H5          13.6300    10.3110     3.5780 ha         1 TNB       0.194500
@<TRIPOS>BOND
     1     1     2 1   
     2     1     5 1   
     3     1     6 1   
     4     1    23 1   
     5     2     3 1   
     6     2     4 1   
     7     5    24 1   
     8     5    25 1   
     9     6     7 1   
    10     6    26 1   
    11     6    27 1   
    12     7     8 1   
    13     8     9 ar  
    14     8    13 ar  
    15     9    10 ar  
    16     9    14 1   
    17    10    11 ar  
    18    10    28 1   
    19    11    12 ar  
    20    11    15 1   
    21    12    13 ar  
    22    12    29 1   
    23    13    16 1   
    24    14    17 1   
    25    14    18 1   
    26    15    19 1   
    27    15    20 1   
    28    16    21 1   
    29    16    22 1   
@<TRIPOS>SUBSTRUCTURE
     1 TNB         1 TEMP              0 ****  ****    0 ROOT
