@<TRIPOS>MOLECULE
TNB
   29    29     1     0     0
SMALL
bcc


@<TRIPOS>ATOM
      1 CA           7.2140     7.5860     4.0770 c3         1 TNB       0.021500
      2 C            6.3910     7.1530     2.8270 c          1 TNB       0.939600
      3 O            5.9090     6.0090     2.8280 o          1 TNB      -0.807300
      4 OXT          6.3300     8.0090     1.9240 o          1 TNB      -0.807300
      5 N            7.0560     6.6690     5.1840 n8         1 TNB      -0.870800
      6 CB           8.6590     7.7600     3.5980 c3         1 TNB       0.006700
      7 SG           9.8220     8.1860     4.9650 ss         1 TNB      -0.244000
      8 C1          10.5990     9.6380     4.3500 ca         1 TNB       0.173900
      9 C2           9.9050    10.7800     3.9390 ca         1 TNB      -0.186200
     10 C3          10.5090    11.8680     3.3470 ca         1 TNB       0.009500
     11 C4          11.8840    11.8530     3.2040 ca         1 TNB      -0.211200
     12 C5          12.6390    10.7740     3.6160 ca         1 TNB       0.009500
     13 C6          11.9860     9.7040     4.1910 ca         1 TNB      -0.186200
     14 N2           8.4620    10.8910     4.1500 no         1 TNB       0.317200
     15 N4          12.5480    12.9990     2.5940 no         1 TNB       0.326200
     16 N6          12.8190     8.5910     4.6290 no         1 TNB       0.317200
     17 O21          8.0620    10.7410     5.2740 o          1 TNB      -0.171000
     18 O22          7.7870    11.1590     3.1890 o          1 TNB      -0.171000
     19 O41         13.7500    12.9660     2.5120 o          1 TNB      -0.202000
     20 O42         11.8510    13.9040     2.2100 o          1 TNB      -0.202000
     21 O61         12.6140     8.1580     5.7340 o          1 TNB      -0.171000
     22 O62         13.6600     8.1970     3.8620 o          1 TNB      -0.171000
     23 HA           6.8310     8.5580     4.3990 h1         1 TNB       0.067700
     24 H            7.6090     6.9590     5.9810 hn         1 TNB       0.329800
     25 H2           7.3630     5.7420     4.9200 hn         1 TNB       0.329800
     26 HB2          9.0370     6.8140     3.2030 h1         1 TNB       0.083200
     27 HB3          8.7500     8.4950     2.8010 h1         1 TNB       0.083200
     28 H3           9.9220    12.7200     3.0340 ha         1 TNB       0.194500
     29 H5          13.7140    10.7630     3.4960 ha         1 TNB       0.194500
@<TRIPOS>BOND
     1     1     2 1   
     2     1     5 1   
     3     1     6 1   
     4     1    23 1   
     5     2     3 1   
     6     2     4 1   
     7     5    24 1   
     8     5    25 1   
     9     6     7 1   
    10     6    26 1   
    11     6    27 1   
    12     7     8 1   
    13     8     9 ar  
    14     8    13 ar  
    15     9    10 ar  
    16     9    14 1   
    17    10    11 ar  
    18    10    28 1   
    19    11    12 ar  
    20    11    15 1   
    21    12    13 ar  
    22    12    29 1   
    23    13    16 1   
    24    14    17 1   
    25    14    18 1   
    26    15    19 1   
    27    15    20 1   
    28    16    21 1   
    29    16    22 1   
@<TRIPOS>SUBSTRUCTURE
     1 TNB         1 TEMP              0 ****  ****    0 ROOT
