@<TRIPOS>MOLECULE
TNC
   49    52     1     0     0
SMALL
No Charge or Current Charge


@<TRIPOS>ATOM
      1 C2          32.9530    26.4960    -5.6090 ca         1 TNC       0.054000
      2 C1          33.8790    25.4990    -5.9670 ca         1 TNC      -0.168000
      3 C6          35.0240    25.8260    -6.7060 ca         1 TNC      -0.036000
      4 C5          35.2430    27.1570    -7.0870 ca         1 TNC      -0.190000
      5 C4          34.3260    28.1580    -6.7330 ca         1 TNC       0.200100
      6 C3          33.1600    27.8440    -5.9840 ca         1 TNC      -0.161000
      7 O1          34.5900    29.4310    -7.1310 oh         1 TNC      -0.537100
      8 C8          30.8670    27.0980    -4.5000 ca         1 TNC       0.003700
      9 C7          31.8170    26.1360    -4.8710 ca         1 TNC      -0.155000
     10 C10         32.1980    28.8160    -5.5940 ca         1 TNC       0.244100
     11 C9          31.0460    28.4470    -4.8510 ca         1 TNC      -0.225800
     12 O2          32.3670    30.1260    -5.9290 oh         1 TNC      -0.578100
     13 C12         28.3750    27.5260    -3.9730 c6         1 TNC      -0.001500
     14 C11         29.6480    26.6780    -3.6850 c6         1 TNC      -0.038100
     15 C14         29.9790    29.4050    -4.4160 ce         1 TNC       0.302900
     16 C13         28.7290    29.0350    -3.9990 cf         1 TNC      -0.358400
     17 O3          30.3120    30.7160    -4.4600 oh         1 TNC      -0.612100
     18 C15         27.2020    27.2070    -2.9830 c6         1 TNC       0.132500
     19 C16         26.0140    28.1950    -3.2340 c          1 TNC       0.626300
     20 C17         26.3370    29.6480    -3.2470 ce         1 TNC      -0.556400
     21 C18         27.7100    30.0560    -3.6040 c          1 TNC       0.648500
     22 O4          28.0080    31.2460    -3.5860 o          1 TNC      -0.716100
     23 C19         25.4420    30.5640    -2.8490 c2         1 TNC       0.503100
     24 O5          24.8450    27.8110    -3.2360 o          1 TNC      -0.588100
     25 N2          24.1910    30.3200    -2.4290 nv         1 TNC      -0.944000
     26 O6          25.6840    31.8520    -2.8180 oh         1 TNC      -0.582100
     27 N1          26.8040    25.7400    -2.8840 n3         1 TNC      -0.762600
     28 C20         27.5430    24.9090    -1.9010 c3         1 TNC       0.188100
     29 C21         26.4890    25.0610    -4.1630 c3         1 TNC       0.188100
     30 HC1         33.7110    24.4660    -5.6730 ha         1 TNC       0.119000
     31 HC6         35.7370    25.0520    -6.9810 ha         1 TNC       0.116000
     32 HC5         36.1300    27.4140    -7.6600 ha         1 TNC       0.131000
     33 HO1         33.8320    29.9660    -6.7840 ho         1 TNC       0.498000
     34 HC7         31.6700    25.0970    -4.5830 ha         1 TNC       0.120000
     35 HO2         31.6310    30.5960    -5.4510 ho         1 TNC       0.527000
     36 HC12        28.0360    27.2730    -4.9870 hc         1 TNC       0.062700
     37 H111        29.9010    26.7360    -2.6180 hc         1 TNC       0.058700
     38 H112        29.4400    25.6250    -3.9060 hc         1 TNC       0.058700
     39 HO3         29.4790    31.1550    -4.1100 ho         1 TNC       0.556000
     40 HC15        27.5550    27.5250    -1.9910 h1         1 TNC       0.073700
     41 HO4         26.6380    31.8780    -3.1130 ho         1 TNC       0.569000
     42 HN21        23.5400    31.0740    -2.6190 hn         1 TNC       0.531500
     43 HN22        23.8620    29.3920    -2.6910 hn         1 TNC       0.531500
     44 H201        27.6770    25.4510    -0.9560 h1         1 TNC       0.027367
     45 H202        26.9800    23.9920    -1.6830 h1         1 TNC       0.027367
     46 H203        28.5310    24.6090    -2.2700 h1         1 TNC       0.027367
     47 H211        27.4010    24.8610    -4.7410 h1         1 TNC       0.027367
     48 H212        25.9890    24.1010    -3.9760 h1         1 TNC       0.027367
     49 H213        25.8200    25.6760    -4.7790 h1         1 TNC       0.027367
@<TRIPOS>BOND
     1     1     2 ar  
     2     1     6 ar  
     3     1     9 ar  
     4     2     3 ar  
     5     2    30 1   
     6     3     4 ar  
     7     3    31 1   
     8     4     5 ar  
     9     4    32 1   
    10     5     6 ar  
    11     5     7 1   
    12     6    10 ar  
    13     7    33 1   
    14     8     9 ar  
    15     8    11 ar  
    16     8    14 1   
    17     9    34 1   
    18    10    11 ar  
    19    10    12 1   
    20    11    15 1   
    21    12    35 1   
    22    13    14 1   
    23    13    16 1   
    24    13    18 1   
    25    13    36 1   
    26    14    37 1   
    27    14    38 1   
    28    15    16 2   
    29    15    17 1   
    30    16    21 1   
    31    17    39 1   
    32    18    19 1   
    33    18    27 1   
    34    18    40 1   
    35    19    20 1   
    36    19    24 2   
    37    20    21 1   
    38    20    23 2   
    39    21    22 2   
    40    23    25 1   
    41    23    26 1   
    42    25    42 1   
    43    25    43 1   
    44    26    41 1   
    45    27    28 1   
    46    27    29 1   
    47    28    44 1   
    48    28    45 1   
    49    28    46 1   
    50    29    47 1   
    51    29    48 1   
    52    29    49 1   
@<TRIPOS>SUBSTRUCTURE
     1 TNC         1 TEMP              0 ****  ****    0 ROOT
