@<TRIPOS>MOLECULE
TNC
   49    52     1     0     0
SMALL
bcc


@<TRIPOS>ATOM
      1 C2          32.8500    26.4970    -5.7020 ca         1 TNC       0.054000
      2 C1          33.7430    25.5270    -6.1930 ca         1 TNC      -0.186000
      3 C6          34.8570    25.9140    -6.8940 ca         1 TNC      -0.054000
      4 C5          35.1220    27.2650    -7.1350 ca         1 TNC      -0.208000
      5 C4          34.2690    28.2450    -6.6730 ca         1 TNC       0.200100
      6 C3          33.1000    27.8770    -5.9360 ca         1 TNC      -0.161000
      7 O1          34.5960    29.5150    -6.9490 oh         1 TNC      -0.498100
      8 C8          30.8280    27.0300    -4.4770 ca         1 TNC       0.003700
      9 C7          31.7010    26.1100    -4.9660 ca         1 TNC      -0.173000
     10 C10         32.1670    28.8240    -5.4240 ca         1 TNC       0.244100
     11 C9          31.0450    28.4170    -4.7130 ca         1 TNC      -0.225800
     12 O2          32.4260    30.1120    -5.6870 oh         1 TNC      -0.539100
     13 C12         28.4200    27.4770    -3.8940 c6         1 TNC      -0.001500
     14 C11         29.6610    26.6330    -3.6240 c6         1 TNC      -0.038100
     15 C14         30.0340    29.3490    -4.2460 ce         1 TNC       0.302900
     16 C13         28.7870    28.9370    -3.8590 cf         1 TNC      -0.358400
     17 O3          30.3760    30.6350    -4.2680 oh         1 TNC      -0.573100
     18 C15         27.3170    27.1770    -2.8620 c6         1 TNC       0.132500
     19 C16         26.1300    28.1330    -3.0370 c          1 TNC       0.626300
     20 C17         26.4480    29.5190    -3.2850 ce         1 TNC      -0.556400
     21 C18         27.7840    29.9230    -3.5690 c          1 TNC       0.648500
     22 O4          28.0870    31.1670    -3.6190 o          1 TNC      -0.716100
     23 C19         25.4390    30.5320    -3.2050 c2         1 TNC       0.503100
     24 O5          24.9850    27.7250    -2.8840 o          1 TNC      -0.588100
     25 N2          24.1700    30.2580    -3.0110 nv         1 TNC      -0.833600
     26 O6          25.7480    31.7900    -3.3240 oh         1 TNC      -0.543100
     27 N1          26.8560    25.8190    -2.7860 n3         1 TNC      -0.762600
     28 C20         27.5100    24.9390    -1.8500 c3         1 TNC       0.188100
     29 C21         26.5090    25.1840    -4.0320 c3         1 TNC       0.188100
     30 HC1         33.5390    24.4800    -6.0080 ha         1 TNC       0.137000
     31 HC6         35.5460    25.1690    -7.2700 ha         1 TNC       0.134000
     32 HC5         36.0050    27.5570    -7.6890 ha         1 TNC       0.149000
     33 HO1         33.9270    30.1190    -6.5900 ho         1 TNC       0.459000
     34 HC7         31.5340    25.0550    -4.7860 ha         1 TNC       0.138000
     35 HO2         31.7580    30.6900    -5.2660 ho         1 TNC       0.488000
     36 HC12        28.0400    27.2300    -4.8960 hc         1 TNC       0.062700
     37 H111        29.9450    26.7530    -2.5710 hc         1 TNC       0.058700
     38 H112        29.4580    25.5740    -3.7790 hc         1 TNC       0.058700
     39 HO3         29.5420    31.1580    -4.0250 ho         1 TNC       0.517000
     40 HC15        27.7310    27.4370    -1.8780 h1         1 TNC       0.073700
     41 HO4         26.7540    31.8330    -3.4480 ho         1 TNC       0.530000
     42 HN21        23.4900    30.9970    -2.9280 hn         1 TNC       0.476300
     43 HN22        23.8970    29.2890    -2.9120 hn         1 TNC       0.476300
     44 H201        27.7150    25.4660    -0.9180 h1         1 TNC       0.027367
     45 H202        26.8490    24.1010    -1.6140 h1         1 TNC       0.027367
     46 H203        28.4570    24.5070    -2.2020 h1         1 TNC       0.027367
     47 H211        27.3740    24.8310    -4.6130 h1         1 TNC       0.027367
     48 H212        25.8810    24.3120    -3.8350 h1         1 TNC       0.027367
     49 H213        25.9350    25.8580    -4.6670 h1         1 TNC       0.027367
@<TRIPOS>BOND
     1     1     2 ar  
     2     1     6 ar  
     3     1     9 ar  
     4     2     3 ar  
     5     2    30 1   
     6     3     4 ar  
     7     3    31 1   
     8     4     5 ar  
     9     4    32 1   
    10     5     6 ar  
    11     5     7 1   
    12     6    10 ar  
    13     7    33 1   
    14     8     9 ar  
    15     8    11 ar  
    16     8    14 1   
    17     9    34 1   
    18    10    11 ar  
    19    10    12 1   
    20    11    15 1   
    21    12    35 1   
    22    13    14 1   
    23    13    16 1   
    24    13    18 1   
    25    13    36 1   
    26    14    37 1   
    27    14    38 1   
    28    15    16 2   
    29    15    17 1   
    30    16    21 1   
    31    17    39 1   
    32    18    19 1   
    33    18    27 1   
    34    18    40 1   
    35    19    20 1   
    36    19    24 2   
    37    20    21 1   
    38    20    23 2   
    39    21    22 2   
    40    23    25 1   
    41    23    26 1   
    42    25    42 1   
    43    25    43 1   
    44    26    41 1   
    45    27    28 1   
    46    27    29 1   
    47    28    44 1   
    48    28    45 1   
    49    28    46 1   
    50    29    47 1   
    51    29    48 1   
    52    29    49 1   
@<TRIPOS>SUBSTRUCTURE
     1 TNC         1 TEMP              0 ****  ****    0 ROOT
