@<TRIPOS>MOLECULE
TND
   73    78     1     0     0
SMALL
bcc


@<TRIPOS>ATOM
      1 C5          -5.2350     1.2050     2.2390 c3         1 TND       0.117400
      2 C4          -4.6420    -0.1030     2.7270 c5         1 TND       0.102100
      3 O4          -4.1520    -0.8920     1.6360 os         1 TND      -0.379600
      4 C3          -3.4330     0.1060     3.6370 c5         1 TND       0.097100
      5 O3          -3.1560    -1.0150     4.4300 oh         1 TND      -0.578800
      6 C2          -2.3210     0.2160     2.5950 c5         1 TND       0.078700
      7 N2          -0.9860    -0.0360     3.0440 ns         1 TND      -0.544900
      8 C1          -2.7680    -0.8120     1.5450 c5         1 TND       0.254800
      9 N9A         -2.3920    -0.4300     0.1980 na         1 TND      -0.270000
     10 C8A         -3.1310     0.2810    -0.7090 cc         1 TND       0.417700
     11 N7A         -2.4870     0.5240    -1.8130 nd         1 TND      -0.559100
     12 C5A         -1.2570    -0.0470    -1.6270 ca         1 TND      -0.227200
     13 C6A         -0.1050    -0.1250    -2.4350 ca         1 TND       0.780200
     14 N6A         -0.0690     0.4200    -3.6550 nu         1 TND      -0.853900
     15 N1A          0.9600    -0.7650    -1.9400 nb         1 TND      -0.828000
     16 C2A          0.8930    -1.2980    -0.7230 ca         1 TND       0.709900
     17 N3A         -0.1220    -1.2910     0.1220 nb         1 TND      -0.764000
     18 C4A         -1.1760    -0.6470    -0.3810 ca         1 TND       0.455800
     19 C15          1.0720     0.4320    -4.5450 c6         1 TND       0.280800
     20 C9           0.8210    -0.4240    -5.7770 ca         1 TND      -0.099300
     21 C8           0.1810    -1.6550    -5.6320 ca         1 TND      -0.108000
     22 C7          -0.0460    -2.4800    -6.7210 ca         1 TND      -0.133000
     23 C6           0.3710    -2.0790    -7.9840 ca         1 TND      -0.121000
     24 C14          1.4520     1.8670    -4.8960 c6         1 TND      -0.088400
     25 C10          1.2520    -0.0240    -7.0440 ca         1 TND      -0.064300
     26 C11          1.0160    -0.8630    -8.1340 ca         1 TND      -0.134000
     27 C13          2.5130     1.8840    -5.9840 c6         1 TND      -0.070400
     28 C12          1.9520     1.2930    -7.2670 c6         1 TND      -0.033100
     29 C7B         -0.2150     0.9190     3.5950 c          1 TND       0.687700
     30 O7B         -0.6310     2.0390     3.8450 o          1 TND      -0.604100
     31 C6B          1.1980     0.5190     3.8770 ca         1 TND      -0.079600
     32 C5B          1.8520    -0.4090     3.0760 ca         1 TND      -0.167500
     33 C4B          3.1790    -0.7310     3.3510 ca         1 TND       0.169100
     34 O2M          3.7510    -1.6220     2.5240 os         1 TND      -0.316400
     35 C2M          5.1070    -1.9710     2.7240 c3         1 TND       0.126200
     36 C3B          3.8430    -0.1370     4.4240 ca         1 TND      -0.288000
     37 C1B          1.8500     1.1360     4.9350 ca         1 TND      -0.167500
     38 C2B          3.1700     0.7960     5.2140 ca         1 TND       0.169100
     39 O1M          3.7310     1.4160     6.2660 os         1 TND      -0.316400
     40 C1M          5.0740     1.1240     6.6000 c3         1 TND       0.126200
     41 O5          -6.2210     0.9140     1.2800 oh         1 TND      -0.583800
     42 H5'1        -5.6460     1.7300     3.1100 h1         1 TND       0.028700
     43 H5'2        -4.4510     1.8520     1.8230 h1         1 TND       0.028700
     44 H4          -5.4220    -0.6870     3.2250 h1         1 TND       0.089700
     45 H3          -3.5220     1.0220     4.2340 h1         1 TND       0.074700
     46 HO3         -3.8600    -1.1190     5.0780 ho         1 TND       0.412000
     47 H2          -2.3550     1.2160     2.1540 h1         1 TND       0.092700
     48 HN2         -0.6330    -0.9790     2.9900 hn         1 TND       0.342500
     49 H1          -2.3110    -1.7920     1.7300 h2         1 TND       0.104700
     50 H8A         -4.1490     0.5770    -0.5030 h5         1 TND       0.081800
     51 H6A         -0.9130     0.8670    -3.9800 hn         1 TND       0.456800
     52 H2A          1.7940    -1.8000    -0.3840 h5         1 TND       0.049100
     53 H9           1.9000    -0.0150    -3.9920 h1         1 TND       0.098700
     54 H8          -0.1450    -1.9780    -4.6510 ha         1 TND       0.139000
     55 H7          -0.5460    -3.4310    -6.5840 ha         1 TND       0.132000
     56 H6           0.2010    -2.7120    -8.8450 ha         1 TND       0.130000
     57 H21          0.5650     2.4100    -5.2430 hc         1 TND       0.050200
     58 H22          1.8010     2.3720    -3.9930 hc         1 TND       0.050200
     59 H5           1.3470    -0.5490    -9.1180 ha         1 TND       0.127000
     60 H31          2.8590     2.9040    -6.1620 hc         1 TND       0.046700
     61 H32          3.3860     1.3100    -5.6570 hc         1 TND       0.046700
     62 H41          1.2420     2.0000    -7.7100 hc         1 TND       0.049700
     63 H42          2.7430     1.1620    -8.0090 hc         1 TND       0.049700
     64 H5B          1.3670    -0.8590     2.2180 ha         1 TND       0.166500
     65 H2M1         5.3600    -2.6810     1.9400 h1         1 TND       0.041200
     66 H2M2         5.7670    -1.1050     2.6400 h1         1 TND       0.041200
     67 H2M3         5.2680    -2.4480     3.6940 h1         1 TND       0.041200
     68 H3B          4.8700    -0.3950     4.6390 ha         1 TND       0.139000
     69 H1B          1.3400     1.8650     5.5520 ha         1 TND       0.166500
     70 H1M1         5.3130     1.7320     7.4690 h1         1 TND       0.041200
     71 H1M2         5.2110     0.0710     6.8590 h1         1 TND       0.041200
     72 H1M3         5.7610     1.3840     5.7910 h1         1 TND       0.041200
     73 HO5         -6.5960     1.7460     0.9760 ho         1 TND       0.409000
@<TRIPOS>BOND
     1     1     2 1   
     2     1    41 1   
     3     1    42 1   
     4     1    43 1   
     5     2     3 1   
     6     2     4 1   
     7     2    44 1   
     8     3     8 1   
     9     4     5 1   
    10     4     6 1   
    11     4    45 1   
    12     5    46 1   
    13     6     7 1   
    14     6     8 1   
    15     6    47 1   
    16     7    29 1   
    17     7    48 1   
    18     8     9 1   
    19     8    49 1   
    20     9    10 1   
    21     9    18 1   
    22    10    11 2   
    23    10    50 1   
    24    11    12 1   
    25    12    13 ar  
    26    12    18 ar  
    27    13    14 1   
    28    13    15 ar  
    29    14    19 1   
    30    14    51 1   
    31    15    16 ar  
    32    16    17 ar  
    33    16    52 1   
    34    17    18 ar  
    35    19    20 1   
    36    19    24 1   
    37    19    53 1   
    38    20    21 ar  
    39    20    25 ar  
    40    21    22 ar  
    41    21    54 1   
    42    22    23 ar  
    43    22    55 1   
    44    23    26 ar  
    45    23    56 1   
    46    24    27 1   
    47    24    57 1   
    48    24    58 1   
    49    25    26 ar  
    50    25    28 1   
    51    26    59 1   
    52    27    28 1   
    53    27    60 1   
    54    27    61 1   
    55    28    62 1   
    56    28    63 1   
    57    29    30 2   
    58    29    31 1   
    59    31    32 ar  
    60    31    37 ar  
    61    32    33 ar  
    62    32    64 1   
    63    33    34 1   
    64    33    36 ar  
    65    34    35 1   
    66    35    65 1   
    67    35    66 1   
    68    35    67 1   
    69    36    38 ar  
    70    36    68 1   
    71    37    38 ar  
    72    37    69 1   
    73    38    39 1   
    74    39    40 1   
    75    40    70 1   
    76    40    71 1   
    77    40    72 1   
    78    41    73 1   
@<TRIPOS>SUBSTRUCTURE
     1 TND         1 TEMP              0 ****  ****    0 ROOT
