@<TRIPOS>MOLECULE
TND
   73    78     1     0     0
SMALL
No Charge or Current Charge


@<TRIPOS>ATOM
      1 C5          -5.2020    -0.9000     2.0800 c3         1 TND       0.140600
      2 C4          -4.1160    -1.8760     2.6320 c5         1 TND       0.125300
      3 O4          -3.2190    -2.2820     1.5620 os         1 TND      -0.426000
      4 C3          -3.1680    -1.2390     3.7020 c5         1 TND       0.120300
      5 O3          -2.4470    -2.2260     4.4750 oh         1 TND      -0.701000
      6 C2          -2.2520    -0.4160     2.7420 c5         1 TND       0.078700
      7 N2          -0.9560    -0.2610     3.4340 ns         1 TND      -0.477900
      8 C1          -2.0320    -1.4490     1.5840 c5         1 TND       0.307300
      9 N9A         -1.7690    -0.9450     0.2350 na         1 TND      -0.299300
     10 C8A         -2.1730     0.2910    -0.2840 cc         1 TND       0.417700
     11 N7A         -1.7490     0.4540    -1.5530 nd         1 TND      -0.559100
     12 C5A         -1.0480    -0.7280    -1.8110 ca         1 TND      -0.096600
     13 C6A         -0.3670    -1.1250    -2.9810 ca         1 TND       0.451900
     14 N6A         -0.3300    -0.2960    -4.0960 nu         1 TND      -0.909100
     15 N1A          0.2640    -2.3150    -3.0370 nb         1 TND      -0.302000
     16 C2A          0.2020    -3.0810    -1.9220 ca         1 TND       0.183900
     17 N3A         -0.4270    -2.7740    -0.7630 nb         1 TND      -0.238000
     18 C4A         -1.0510    -1.5810    -0.7370 ca         1 TND       0.127500
     19 C15          0.6750    -0.3490    -5.1720 c6         1 TND       0.280800
     20 C9           0.1880     0.4400    -6.4060 ca         1 TND      -0.099300
     21 C8          -1.1340     0.2580    -6.8720 ca         1 TND      -0.090000
     22 C7          -1.5990     0.9490    -8.0020 ca         1 TND      -0.115000
     23 C6          -0.7460     1.8260    -8.6880 ca         1 TND      -0.103000
     24 C14          2.0280     0.1640    -4.6140 c6         1 TND      -0.088400
     25 C10          1.0540     1.3110    -7.1190 ca         1 TND      -0.064300
     26 C11          0.5750     2.0030    -8.2480 ca         1 TND      -0.116000
     27 C13          3.0350     0.4200    -5.7510 c6         1 TND      -0.070400
     28 C12          2.5080     1.5280    -6.6860 c6         1 TND      -0.033100
     29 C7B         -0.0700     0.7020     2.9930 c          1 TND       0.620700
     30 O7B         -0.3540     1.4610     2.0750 o          1 TND      -0.604100
     31 C6B          1.2690     0.7690     3.7080 ca         1 TND      -0.079600
     32 C5B          1.6100    -0.1080     4.7670 ca         1 TND      -0.149500
     33 C4B          2.8570    -0.0220     5.4060 ca         1 TND       0.169100
     34 O2M          3.1130    -0.9120     6.4290 os         1 TND      -0.339600
     35 C2M          4.3550    -0.9180     7.1550 c3         1 TND       0.149400
     36 C3B          3.7940     0.9480     4.9970 ca         1 TND      -0.270000
     37 C1B          2.2230     1.7340     3.3130 ca         1 TND      -0.149500
     38 C2B          3.4710     1.8280     3.9450 ca         1 TND       0.169100
     39 O1M          4.3430     2.7990     3.4970 os         1 TND      -0.339600
     40 C1M          5.6490     2.9870     4.0700 c3         1 TND       0.149400
     41 O5          -6.1710    -1.6000     1.2790 oh         1 TND      -0.706000
     42 H5'1        -5.7030    -0.4200     2.9310 h1         1 TND       0.028700
     43 H5'2        -4.7230    -0.1070     1.4900 h1         1 TND       0.028700
     44 H4          -4.6270    -2.7620     3.0320 h1         1 TND       0.089700
     45 H3          -3.7220    -0.5690     4.3760 h1         1 TND       0.074700
     46 HO3         -3.1000    -2.6880     5.0520 ho         1 TND       0.511000
     47 H2          -2.7170     0.5270     2.4260 h1         1 TND       0.092700
     48 HN2         -0.6800    -0.8570     4.2050 hn         1 TND       0.342500
     49 H1          -1.1750    -2.0890     1.8340 h2         1 TND       0.104700
     50 H8A         -2.7600     1.0030     0.2830 h5         1 TND       0.081800
     51 H6A         -0.8170     0.5860    -3.9470 hn         1 TND       0.512000
     52 H2A          0.7110    -4.0430    -1.9610 h5         1 TND       0.049100
     53 H9           0.8170    -1.3890    -5.5090 h1         1 TND       0.098700
     54 H8          -1.8050    -0.4250    -6.3560 ha         1 TND       0.121000
     55 H7          -2.6200     0.8030    -8.3460 ha         1 TND       0.114000
     56 H6          -1.1060     2.3630    -9.5630 ha         1 TND       0.112000
     57 H21          1.8770     1.0950    -4.0510 hc         1 TND       0.050200
     58 H22          2.4440    -0.5660    -3.9060 hc         1 TND       0.050200
     59 H5           1.2320     2.6790    -8.7910 ha         1 TND       0.109000
     60 H31          4.0100     0.7120    -5.3370 hc         1 TND       0.046700
     61 H32          3.1970    -0.5060    -6.3210 hc         1 TND       0.046700
     62 H41          2.5840     2.4990    -6.1770 hc         1 TND       0.049700
     63 H42          3.1580     1.5950    -7.5700 hc         1 TND       0.049700
     64 H5B          0.9200    -0.8710     5.1140 ha         1 TND       0.148500
     65 H2M1         4.3440    -1.7030     7.9200 h1         1 TND       0.041200
     66 H2M2         5.2000    -1.1110     6.4810 h1         1 TND       0.041200
     67 H2M3         4.5170     0.0440     7.6580 h1         1 TND       0.041200
     68 H3B          4.7570     1.0170     5.4880 ha         1 TND       0.121000
     69 H1B          1.9970     2.4240     2.5030 ha         1 TND       0.148500
     70 H1M1         6.1710     3.8090     3.5650 h1         1 TND       0.041200
     71 H1M2         5.5750     3.2360     5.1370 h1         1 TND       0.041200
     72 H1M3         6.2580     2.0800     3.9600 h1         1 TND       0.041200
     73 HO5         -6.8140    -0.9300     0.9460 ho         1 TND       0.508000
@<TRIPOS>BOND
     1     1     2 1   
     2     1    41 1   
     3     1    42 1   
     4     1    43 1   
     5     2     3 1   
     6     2     4 1   
     7     2    44 1   
     8     3     8 1   
     9     4     5 1   
    10     4     6 1   
    11     4    45 1   
    12     5    46 1   
    13     6     7 1   
    14     6     8 1   
    15     6    47 1   
    16     7    29 1   
    17     7    48 1   
    18     8     9 1   
    19     8    49 1   
    20     9    10 1   
    21     9    18 1   
    22    10    11 2   
    23    10    50 1   
    24    11    12 1   
    25    12    13 ar  
    26    12    18 ar  
    27    13    14 1   
    28    13    15 ar  
    29    14    19 1   
    30    14    51 1   
    31    15    16 ar  
    32    16    17 ar  
    33    16    52 1   
    34    17    18 ar  
    35    19    20 1   
    36    19    24 1   
    37    19    53 1   
    38    20    21 ar  
    39    20    25 ar  
    40    21    22 ar  
    41    21    54 1   
    42    22    23 ar  
    43    22    55 1   
    44    23    26 ar  
    45    23    56 1   
    46    24    27 1   
    47    24    57 1   
    48    24    58 1   
    49    25    26 ar  
    50    25    28 1   
    51    26    59 1   
    52    27    28 1   
    53    27    60 1   
    54    27    61 1   
    55    28    62 1   
    56    28    63 1   
    57    29    30 2   
    58    29    31 1   
    59    31    32 ar  
    60    31    37 ar  
    61    32    33 ar  
    62    32    64 1   
    63    33    34 1   
    64    33    36 ar  
    65    34    35 1   
    66    35    65 1   
    67    35    66 1   
    68    35    67 1   
    69    36    38 ar  
    70    36    68 1   
    71    37    38 ar  
    72    37    69 1   
    73    38    39 1   
    74    39    40 1   
    75    40    70 1   
    76    40    71 1   
    77    40    72 1   
    78    41    73 1   
@<TRIPOS>SUBSTRUCTURE
     1 TND         1 TEMP              0 ****  ****    0 ROOT
