@<TRIPOS>MOLECULE
TNE
   23    24     1     0     0
SMALL
No Charge or Current Charge


@<TRIPOS>ATOM
      1 C1          37.9660    31.0010   153.5450 c5         1 TNE       0.165000
      2 C2          36.4720    31.2380   153.2080 c6         1 TNE      -0.174900
      3 C3          35.7490    31.8990   154.3780 c          1 TNE       0.581100
      4 O3          35.5190    33.1040   154.3530 o          1 TNE      -0.530100
      5 C4          36.0700    31.2180   155.7060 c6         1 TNE      -0.174900
      6 C5          37.5950    30.9830   155.8510 c5         1 TNE       0.165000
      7 C6          38.4820    32.2470   155.6160 c5         1 TNE      -0.111400
      8 C7          38.7310    32.2590   154.0660 c5         1 TNE      -0.111400
      9 N8          38.0140    30.1040   154.7290 n3         1 TNE      -0.696600
     10 C9          39.3050    29.3970   154.9310 c3         1 TNE       0.147100
     11 H1          38.4550    30.5590   152.6640 h1         1 TNE       0.068700
     12 H21         36.0270    30.2470   153.0480 hc         1 TNE       0.073700
     13 H22         36.3780    31.8590   152.3090 hc         1 TNE       0.073700
     14 H41         35.6000    30.2260   155.7030 hc         1 TNE       0.073700
     15 H42         35.6970    31.8250   156.5400 hc         1 TNE       0.073700
     16 H5          37.7840    30.5270   156.8340 h1         1 TNE       0.068700
     17 H61         39.4290    32.1670   156.1610 hc         1 TNE       0.051700
     18 H62         37.9950    33.1630   155.9690 hc         1 TNE       0.051700
     19 H71         38.3770    33.1820   153.5920 hc         1 TNE       0.051700
     20 H72         39.8020    32.1850   153.8440 hc         1 TNE       0.051700
     21 H91         39.2520    28.7500   155.8160 h1         1 TNE       0.033700
     22 H92         40.1400    30.0960   155.0700 h1         1 TNE       0.033700
     23 H93         39.5340    28.7640   154.0640 h1         1 TNE       0.033700
@<TRIPOS>BOND
     1     1     2 1   
     2     1     8 1   
     3     1     9 1   
     4     1    11 1   
     5     2     3 1   
     6     2    12 1   
     7     2    13 1   
     8     3     4 2   
     9     3     5 1   
    10     5     6 1   
    11     5    14 1   
    12     5    15 1   
    13     6     7 1   
    14     6     9 1   
    15     6    16 1   
    16     7     8 1   
    17     7    17 1   
    18     7    18 1   
    19     8    19 1   
    20     8    20 1   
    21     9    10 1   
    22    10    21 1   
    23    10    22 1   
    24    10    23 1   
@<TRIPOS>SUBSTRUCTURE
     1 TNE         1 TEMP              0 ****  ****    0 ROOT
