@<TRIPOS>MOLECULE
TNE
   23    24     1     0     0
SMALL
abcg2


@<TRIPOS>ATOM
      1 C1          38.0100    30.9870   153.5850 c5         1 TNE       0.165000
      2 C2          36.5630    31.3150   153.2140 c6         1 TNE      -0.174900
      3 C3          35.7970    31.8710   154.3900 c          1 TNE       0.581100
      4 O3          34.9340    32.7130   154.2620 o          1 TNE      -0.530100
      5 C4          36.1560    31.2840   155.7330 c6         1 TNE      -0.174900
      6 C5          37.6500    30.9680   155.8260 c5         1 TNE       0.165000
      7 C6          38.5000    32.2400   155.6040 c5         1 TNE      -0.111400
      8 C7          38.7570    32.2460   154.0830 c5         1 TNE      -0.111400
      9 N8          37.9900    30.0730   154.7240 n3         1 TNE      -0.696600
     10 C9          39.2530    29.3860   154.9190 c3         1 TNE       0.147100
     11 H1          38.5030    30.5200   152.7310 h1         1 TNE       0.068700
     12 H21         36.0560    30.3940   152.9040 hc         1 TNE       0.073700
     13 H22         36.5140    32.0130   152.3760 hc         1 TNE       0.073700
     14 H41         35.5880    30.3530   155.8450 hc         1 TNE       0.073700
     15 H42         35.8390    31.9590   156.5290 hc         1 TNE       0.073700
     16 H5          37.8560    30.4890   156.7840 h1         1 TNE       0.068700
     17 H61         39.4350    32.1820   156.1620 hc         1 TNE       0.051700
     18 H62         37.9860    33.1380   155.9500 hc         1 TNE       0.051700
     19 H71         38.3990    33.1540   153.5950 hc         1 TNE       0.051700
     20 H72         39.8230    32.1730   153.8670 hc         1 TNE       0.051700
     21 H91         39.1940    28.7630   155.8110 h1         1 TNE       0.033700
     22 H92         40.1240    30.0470   155.0320 h1         1 TNE       0.033700
     23 H93         39.4460    28.7300   154.0690 h1         1 TNE       0.033700
@<TRIPOS>BOND
     1     1     2 1   
     2     1     8 1   
     3     1     9 1   
     4     1    11 1   
     5     2     3 1   
     6     2    12 1   
     7     2    13 1   
     8     3     4 2   
     9     3     5 1   
    10     5     6 1   
    11     5    14 1   
    12     5    15 1   
    13     6     7 1   
    14     6     9 1   
    15     6    16 1   
    16     7     8 1   
    17     7    17 1   
    18     7    18 1   
    19     8    19 1   
    20     8    20 1   
    21     9    10 1   
    22    10    21 1   
    23    10    22 1   
    24    10    23 1   
@<TRIPOS>SUBSTRUCTURE
     1 TNE         1 TEMP              0 ****  ****    0 ROOT
