@<TRIPOS>MOLECULE
TNF
   19    19     1     0     0
SMALL
abcg2


@<TRIPOS>ATOM
      1 C1           1.2620     0.0810     0.0740 ca         1 TNF       0.335100
      2 C2           0.4870     1.2660     0.0330 ca         1 TNF      -0.305700
      3 C3          -0.8890     1.2290    -0.0090 ca         1 TNF       0.095000
      4 C4          -1.5460     0.0130    -0.0110 ca         1 TNF      -0.260200
      5 N4          -2.9960    -0.0140    -0.0570 no         1 TNF       0.708200
      6 N2           1.1080     2.5860     0.0310 no         1 TNF       0.709200
      7 O1           2.5600     0.1330     0.1160 oh         1 TNF      -0.455100
      8 O21          0.3670     3.5410     0.0250 o          1 TNF      -0.376250
      9 O22          2.3080     2.6610     0.0320 o          1 TNF      -0.376250
     10 O41         -3.5750     1.0440    -0.1030 o          1 TNF      -0.378000
     11 C6           0.5300    -1.1360     0.0690 ca         1 TNF      -0.305700
     12 C5          -0.8480    -1.1740     0.0280 ca         1 TNF       0.095000
     13 O42         -3.5360    -1.0930    -0.0460 o          1 TNF      -0.378000
     14 N6           1.2220    -2.4070     0.1070 no         1 TNF       0.709200
     15 O61          0.5770    -3.4170     0.0940 o          1 TNF      -0.376250
     16 O62          2.4430    -2.3930     0.1500 o          1 TNF      -0.376250
     17 H3          -1.4500     2.1520    -0.0400 ha         1 TNF       0.196000
     18 H1           2.9110    -0.7860     0.1430 ho         1 TNF       0.542000
     19 H5          -1.3670    -2.1220     0.0260 ha         1 TNF       0.196000
@<TRIPOS>BOND
     1     1     2 ar  
     2     1     7 1   
     3     1    11 ar  
     4     2     3 ar  
     5     2     6 1   
     6     3     4 ar  
     7     3    17 1   
     8     4     5 1   
     9     4    12 ar  
    10     5    10 1   
    11     5    13 1   
    12     6     8 1   
    13     6     9 1   
    14     7    18 1   
    15    11    12 ar  
    16    11    14 1   
    17    12    19 1   
    18    14    15 1   
    19    14    16 1   
@<TRIPOS>SUBSTRUCTURE
     1 TNF         1 TEMP              0 ****  ****    0 ROOT
