@<TRIPOS>MOLECULE
TNF
   19    19     1     0     0
SMALL
No Charge or Current Charge


@<TRIPOS>ATOM
      1 C1           1.2350     0.0860     0.1290 ca         1 TNF       0.335100
      2 C2           0.4970     1.2800     0.0510 ca         1 TNF      -0.305700
      3 C3          -0.9070     1.2540    -0.0380 ca         1 TNF       0.095000
      4 C4          -1.5870     0.0220    -0.0660 ca         1 TNF      -0.260200
      5 N4          -3.0770    -0.0100    -0.1680 no         1 TNF       0.708200
      6 N2           1.1810     2.5910     0.0700 no         1 TNF       0.709200
      7 O1           2.5900     0.1680     0.2670 oh         1 TNF      -0.455100
      8 O21          0.6820     3.4770     0.7750 o          1 TNF      -0.376250
      9 O22          2.0410     2.8040    -0.7930 o          1 TNF      -0.376250
     10 O41         -3.6810     1.0680    -0.2260 o          1 TNF      -0.378000
     11 C6           0.5610    -1.1610     0.1030 ca         1 TNF      -0.305700
     12 C5          -0.8520    -1.1800     0.0010 ca         1 TNF       0.095000
     13 O42         -3.6380    -1.1120    -0.1900 o          1 TNF      -0.378000
     14 N6           1.2840    -2.4710     0.1860 no         1 TNF       0.709200
     15 O61          0.6140    -3.5040     0.2920 o          1 TNF      -0.376250
     16 O62          2.5210    -2.4640     0.1420 o          1 TNF      -0.376250
     17 H3          -1.4600     2.1940    -0.0940 ha         1 TNF       0.196000
     18 H1           2.9480    -0.7470     0.2450 ho         1 TNF       0.542000
     19 H5          -1.3840    -2.1330    -0.0230 ha         1 TNF       0.196000
@<TRIPOS>BOND
     1     1     2 ar  
     2     1     7 1   
     3     1    11 ar  
     4     2     3 ar  
     5     2     6 1   
     6     3     4 ar  
     7     3    17 1   
     8     4     5 1   
     9     4    12 ar  
    10     5    10 1   
    11     5    13 1   
    12     6     8 1   
    13     6     9 1   
    14     7    18 1   
    15    11    12 ar  
    16    11    14 1   
    17    12    19 1   
    18    14    15 1   
    19    14    16 1   
@<TRIPOS>SUBSTRUCTURE
     1 TNF         1 TEMP              0 ****  ****    0 ROOT
