@<TRIPOS>MOLECULE
TNG
   20    19     1     0     0
SMALL
bcc


@<TRIPOS>ATOM
      1 O9          -3.9290    -1.3550     0.4620 o          1 TNG      -0.160500
      2 N3          -3.7270    -0.3060    -0.0730 no         1 TNG       0.370700
      3 O8          -4.5170     0.5050    -0.4420 o          1 TNG      -0.160500
      4 O7          -2.4470     0.0550    -0.3180 os         1 TNG      -0.328500
      5 C3          -1.4470    -0.8690     0.1220 c3         1 TNG       0.113400
      6 C2          -0.1270    -0.2130    -0.2270 c3         1 TNG       0.130100
      7 O4          -0.0220     0.9540     0.6050 os         1 TNG      -0.336000
      8 N2           0.5180     2.0810     0.0610 no         1 TNG       0.377200
      9 O6           0.8510     2.0740    -1.0840 o          1 TNG      -0.152000
     10 O5           0.5820     2.9700     0.8480 o          1 TNG      -0.152000
     11 C1           1.0050    -1.1710     0.0900 c3         1 TNG       0.113400
     12 O3           2.2040    -0.4630    -0.2420 os         1 TNG      -0.328500
     13 N1           3.3610    -1.1220    -0.0020 no         1 TNG       0.370700
     14 O2           3.3020    -2.2330     0.4320 o          1 TNG      -0.160500
     15 O1           4.3250    -0.4780    -0.2710 o          1 TNG      -0.160500
     16 H1          -1.5280    -1.0510     1.1960 h1         1 TNG       0.085200
     17 H2          -1.5290    -1.8160    -0.4130 h1         1 TNG       0.085200
     18 H3          -0.1160     0.0570    -1.2840 h1         1 TNG       0.121700
     19 H4           0.9980    -1.4470     1.1470 h1         1 TNG       0.085200
     20 H5           0.9020    -2.0680    -0.5220 h1         1 TNG       0.085200
@<TRIPOS>BOND
     1     1     2 1   
     2     2     3 1   
     3     2     4 1   
     4     4     5 1   
     5     5     6 1   
     6     5    16 1   
     7     5    17 1   
     8     6     7 1   
     9     6    11 1   
    10     6    18 1   
    11     7     8 1   
    12     8     9 1   
    13     8    10 1   
    14    11    12 1   
    15    11    19 1   
    16    11    20 1   
    17    12    13 1   
    18    13    14 1   
    19    13    15 1   
@<TRIPOS>SUBSTRUCTURE
     1 TNG         1 TEMP              0 ****  ****    0 ROOT
