@<TRIPOS>MOLECULE
TNG
   20    19     1     0     0
SMALL
No Charge or Current Charge


@<TRIPOS>ATOM
      1 O9          -4.1070    -1.5090     0.4250 o          1 TNG      -0.350500
      2 N3          -3.9360    -0.4260    -0.1520 no         1 TNG       0.790500
      3 O8          -4.8200     0.3100    -0.5980 o          1 TNG      -0.350500
      4 O7          -2.5760     0.0150    -0.3740 os         1 TNG      -0.391500
      5 C3          -1.5190    -0.8330     0.1250 c3         1 TNG       0.136600
      6 C2          -0.1660    -0.1570    -0.1960 c3         1 TNG       0.153300
      7 O4          -0.0810     1.0280     0.6390 os         1 TNG      -0.399000
      8 N2           0.7290     2.1410     0.1820 no         1 TNG       0.797000
      9 O6           1.0370     2.1710    -1.0170 o          1 TNG      -0.342000
     10 O5           0.7810     3.0990     0.9570 o          1 TNG      -0.342000
     11 C1           1.0310    -1.0860     0.1390 c3         1 TNG       0.136600
     12 O3           2.2500    -0.4770    -0.3390 os         1 TNG      -0.391500
     13 N1           3.4830    -1.2000    -0.1140 no         1 TNG       0.790500
     14 O2           3.4180    -2.2890     0.4720 o          1 TNG      -0.350500
     15 O1           4.5100    -0.6530    -0.5250 o          1 TNG      -0.350500
     16 H1          -1.6040    -0.9790     1.2110 h1         1 TNG       0.085200
     17 H2          -1.5560    -1.8190    -0.3580 h1         1 TNG       0.085200
     18 H3          -0.1610     0.0780    -1.2690 h1         1 TNG       0.121700
     19 H4           1.0700    -1.2490     1.2250 h1         1 TNG       0.085200
     20 H5           0.8760    -2.0600    -0.3460 h1         1 TNG       0.085200
@<TRIPOS>BOND
     1     1     2 1   
     2     2     3 1   
     3     2     4 1   
     4     4     5 1   
     5     5     6 1   
     6     5    16 1   
     7     5    17 1   
     8     6     7 1   
     9     6    11 1   
    10     6    18 1   
    11     7     8 1   
    12     8     9 1   
    13     8    10 1   
    14    11    12 1   
    15    11    19 1   
    16    11    20 1   
    17    12    13 1   
    18    13    14 1   
    19    13    15 1   
@<TRIPOS>SUBSTRUCTURE
     1 TNG         1 TEMP              0 ****  ****    0 ROOT
