@<TRIPOS>MOLECULE
TNH
   60    63     1     0     0
SMALL
abcg2


@<TRIPOS>ATOM
      1 C1           6.5740     2.0790    -1.5650 c6         1 TNH      -0.132700
      2 C2           5.6090     3.2500    -1.6680 c6         1 TNH      -0.074400
      3 C3           4.8560     3.4110    -0.3590 c6         1 TNH      -0.075400
      4 C4           3.9860     2.1850    -0.1240 c6         1 TNH      -0.020100
      5 C5           4.7500     0.8920    -0.2360 ca         1 TNH      -0.147300
      6 C6           5.9940     0.8470    -0.9140 ca         1 TNH       0.395300
      7 N1           6.7480    -0.2250    -0.9830 nb         1 TNH      -0.693000
      8 C7           6.3310    -1.3560    -0.3810 ca         1 TNH       0.292000
      9 C8           7.1620    -2.4990    -0.4620 ca         1 TNH      -0.085000
     10 C9           6.7820    -3.6820     0.1100 ca         1 TNH      -0.102000
     11 C10          5.5490    -3.7770     0.7830 ca         1 TNH      -0.113000
     12 C11          4.7280    -2.6860     0.8780 ca         1 TNH      -0.097000
     13 C12          5.1000    -1.4430     0.3120 ca         1 TNH      -0.118000
     14 C13          4.2940    -0.2660     0.3790 ca         1 TNH       0.308000
     15 N2           3.0940    -0.2700     1.0780 nu         1 TNH      -0.929200
     16 C14          1.8420    -0.1230     0.3410 c3         1 TNH       0.187800
     17 C15          0.6620    -0.0270     1.2920 c3         1 TNH      -0.084400
     18 C16         -0.6570     0.1190     0.5460 c3         1 TNH      -0.074400
     19 C17         -1.8640     0.1850     1.4730 c3         1 TNH      -0.071400
     20 C18         -3.1760     0.3480     0.7170 c3         1 TNH      -0.100400
     21 C19         -4.3730     0.4190     1.6580 c3         1 TNH       0.105000
     22 N3          -5.6300     0.6020     0.9630 ns         1 TNH      -0.503900
     23 C20         -6.3410    -0.4150     0.4560 c          1 TNH       0.617700
     24 O1          -6.0410    -1.5910     0.6120 o          1 TNH      -0.598100
     25 C21         -7.5650    -0.0400    -0.3160 ca         1 TNH      -0.206600
     26 C22         -8.6410    -0.9220    -0.3490 ca         1 TNH      -0.022000
     27 C23         -9.7660    -0.5800    -1.0770 ca         1 TNH      -0.172000
     28 C24         -9.7660     0.6240    -1.7680 ca         1 TNH       0.352900
     29 N4          -8.7380     1.4620    -1.7690 nb         1 TNH      -0.670000
     30 C25         -7.6680     1.1340    -1.0570 ca         1 TNH       0.355900
     31 H1           6.9650     1.8010    -2.5450 hc         1 TNH       0.062700
     32 H2           7.4430     2.3820    -0.9720 hc         1 TNH       0.062700
     33 H3           6.1610     4.1570    -1.9230 hc         1 TNH       0.043200
     34 H4           4.8920     3.0810    -2.4780 hc         1 TNH       0.043200
     35 H5           5.5660     3.5350     0.4650 hc         1 TNH       0.044200
     36 H6           4.2280     4.3040    -0.3740 hc         1 TNH       0.044200
     37 H7           3.5010     2.2280     0.8550 hc         1 TNH       0.051200
     38 H8           3.1730     2.2050    -0.8590 hc         1 TNH       0.051200
     39 H9           8.1020    -2.4110    -0.9920 ha         1 TNH       0.130000
     40 H10          7.4240    -4.5510     0.0400 ha         1 TNH       0.116000
     41 H11          5.2450    -4.7190     1.2200 ha         1 TNH       0.113000
     42 H12          3.7800    -2.8010     1.3880 ha         1 TNH       0.104000
     43 H13          1.8820     0.7770    -0.2710 h1         1 TNH       0.039700
     44 H14          0.6280    -0.9210     1.9250 hc         1 TNH       0.046700
     45 H15          0.8080     0.8250     1.9630 hc         1 TNH       0.046700
     46 H16         -0.6270     1.0230    -0.0720 hc         1 TNH       0.041200
     47 H17         -0.7810    -0.7190    -0.1480 hc         1 TNH       0.041200
     48 H18         -1.9030    -0.7240     2.0840 hc         1 TNH       0.040200
     49 H19         -1.7390     1.0180     2.1740 hc         1 TNH       0.040200
     50 H20         -3.1420     1.2580     0.1090 hc         1 TNH       0.049200
     51 H21         -3.3090    -0.4880     0.0240 hc         1 TNH       0.049200
     52 H22         -4.4300    -0.4860     2.2650 h1         1 TNH       0.054700
     53 H23         -4.2580     1.2570     2.3460 h1         1 TNH       0.054700
     54 H24         -5.9600     1.5450     0.8430 hn         1 TNH       0.316500
     55 H25         -8.6000    -1.8560     0.1960 ha         1 TNH       0.141000
     56 H26        -10.6270    -1.2320    -1.1140 ha         1 TNH       0.129000
     57 H27        -10.6320     0.9180    -2.3500 h4         1 TNH       0.022100
     58 H28         -6.8410     1.8350    -1.1010 h4         1 TNH       0.016100
     59 HNW          3.0240    -1.0460     1.7200 hn         1 TNH       0.442000
     60 HAQ          1.6920    -0.9630    -0.3510 h1         1 TNH       0.039700
@<TRIPOS>BOND
     1     1     2 1   
     2     1     6 1   
     3     1    31 1   
     4     1    32 1   
     5     2     3 1   
     6     2    33 1   
     7     2    34 1   
     8     3     4 1   
     9     3    35 1   
    10     3    36 1   
    11     4     5 1   
    12     4    37 1   
    13     4    38 1   
    14     5     6 ar  
    15     5    14 ar  
    16     6     7 ar  
    17     7     8 ar  
    18     8     9 ar  
    19     8    13 ar  
    20     9    10 ar  
    21     9    39 1   
    22    10    11 ar  
    23    10    40 1   
    24    11    12 ar  
    25    11    41 1   
    26    12    13 ar  
    27    12    42 1   
    28    13    14 ar  
    29    14    15 1   
    30    15    16 1   
    31    15    59 1   
    32    16    17 1   
    33    16    43 1   
    34    16    60 1   
    35    17    18 1   
    36    17    44 1   
    37    17    45 1   
    38    18    19 1   
    39    18    46 1   
    40    18    47 1   
    41    19    20 1   
    42    19    48 1   
    43    19    49 1   
    44    20    21 1   
    45    20    50 1   
    46    20    51 1   
    47    21    22 1   
    48    21    52 1   
    49    21    53 1   
    50    22    23 1   
    51    22    54 1   
    52    23    24 2   
    53    23    25 1   
    54    25    26 ar  
    55    25    30 ar  
    56    26    27 ar  
    57    26    55 1   
    58    27    28 ar  
    59    27    56 1   
    60    28    29 ar  
    61    28    57 1   
    62    29    30 ar  
    63    30    58 1   
@<TRIPOS>SUBSTRUCTURE
     1 TNH         1 TEMP              0 ****  ****    0 ROOT
