@<TRIPOS>MOLECULE
TNH
   60    63     1     0     0
SMALL
No Charge or Current Charge


@<TRIPOS>ATOM
      1 C1           6.9570     1.9720    -1.5430 c6         1 TNH      -0.132700
      2 C2           6.0690     3.2050    -1.8240 c6         1 TNH      -0.074400
      3 C3           5.1970     3.5240    -0.5950 c6         1 TNH      -0.075400
      4 C4           4.2440     2.3480    -0.2890 c6         1 TNH      -0.020100
      5 C5           4.9430     0.9720    -0.2770 ca         1 TNH      -0.147300
      6 C6           6.2090     0.8120    -0.8780 ca         1 TNH       0.395300
      7 N1           6.8830    -0.3550    -0.8860 nb         1 TNH      -0.693000
      8 C7           6.3320    -1.4360    -0.2990 ca         1 TNH       0.292000
      9 C8           7.0420    -2.6510    -0.3090 ca         1 TNH      -0.085000
     10 C9           6.5130    -3.8080     0.2840 ca         1 TNH      -0.102000
     11 C10          5.2550    -3.7600     0.8980 ca         1 TNH      -0.113000
     12 C11          4.5290    -2.5590     0.9200 ca         1 TNH      -0.097000
     13 C12          5.0620    -1.3850     0.3270 ca         1 TNH      -0.118000
     14 C13          4.3550    -0.1590     0.3290 ca         1 TNH       0.308000
     15 N2           3.0990    -0.0710     0.9510 nu         1 TNH      -0.929200
     16 C14          1.8290     0.0560     0.2230 c3         1 TNH       0.187800
     17 C15          0.6450     0.0620     1.2090 c3         1 TNH      -0.084400
     18 C16         -0.7220     0.1950     0.5020 c3         1 TNH      -0.074400
     19 C17         -1.9130     0.2030     1.4860 c3         1 TNH      -0.071400
     20 C18         -3.2790     0.3370     0.7780 c3         1 TNH      -0.100400
     21 C19         -4.4660     0.3450     1.7630 c3         1 TNH       0.105000
     22 N3          -5.7520     0.4960     1.0760 ns         1 TNH      -0.503900
     23 C20         -6.4230    -0.5220     0.4300 c          1 TNH       0.617700
     24 O1          -5.9830    -1.6630     0.4170 o          1 TNH      -0.598100
     25 C21         -7.7150    -0.1660    -0.2500 ca         1 TNH      -0.206600
     26 C22         -8.4600    -1.1550    -0.9280 ca         1 TNH      -0.022000
     27 C23         -9.6610    -0.7830    -1.5510 ca         1 TNH      -0.172000
     28 C24        -10.0830     0.5520    -1.4810 ca         1 TNH       0.352900
     29 N4          -9.3790     1.5090    -0.8360 nb         1 TNH      -0.670000
     30 C25         -8.2210     1.1490    -0.2350 ca         1 TNH       0.355900
     31 H1           7.4150     1.6350    -2.4830 hc         1 TNH       0.062700
     32 H2           7.7860     2.2690    -0.8880 hc         1 TNH       0.062700
     33 H3           6.6960     4.0690    -2.0820 hc         1 TNH       0.043200
     34 H4           5.4250     3.0120    -2.6940 hc         1 TNH       0.043200
     35 H5           5.8390     3.7210     0.2760 hc         1 TNH       0.044200
     36 H6           4.6160     4.4400    -0.7700 hc         1 TNH       0.044200
     37 H7           3.7470     2.5360     0.6730 hc         1 TNH       0.051200
     38 H8           3.4530     2.3360    -1.0500 hc         1 TNH       0.051200
     39 H9           8.0180    -2.6940    -0.7870 ha         1 TNH       0.130000
     40 H10          7.0770    -4.7380     0.2660 ha         1 TNH       0.116000
     41 H11          4.8380    -4.6550     1.3560 ha         1 TNH       0.113000
     42 H12          3.5530    -2.5580     1.3970 ha         1 TNH       0.104000
     43 H13          1.8100     0.9820    -0.3650 h1         1 TNH       0.039700
     44 H14          0.6570    -0.8650     1.7960 hc         1 TNH       0.046700
     45 H15          0.7680     0.8940     1.9130 hc         1 TNH       0.046700
     46 H16         -0.7350     1.1210    -0.0860 hc         1 TNH       0.041200
     47 H17         -0.8440    -0.6350    -0.2050 hc         1 TNH       0.041200
     48 H18         -1.9020    -0.7230     2.0740 hc         1 TNH       0.040200
     49 H19         -1.7910     1.0330     2.1930 hc         1 TNH       0.040200
     50 H20         -3.2940     1.2640     0.1920 hc         1 TNH       0.049200
     51 H21         -3.4010    -0.4930     0.0710 hc         1 TNH       0.049200
     52 H22         -4.4740    -0.5880     2.3430 h1         1 TNH       0.054700
     53 H23         -4.3490     1.1780     2.4690 h1         1 TNH       0.054700
     54 H24         -6.1740     1.4160     1.0540 hn         1 TNH       0.316500
     55 H25         -8.1180    -2.1880    -0.9720 ha         1 TNH       0.141000
     56 H26        -10.2620    -1.5160    -2.0820 ha         1 TNH       0.129000
     57 H27        -11.0120     0.8680    -1.9560 h4         1 TNH       0.022100
     58 H28         -7.6930     1.9570     0.2700 h4         1 TNH       0.016100
     59 HNW          3.0330    -0.6670     1.7740 hn         1 TNH       0.442000
     60 HAQ          1.7150    -0.7870    -0.4730 h1         1 TNH       0.039700
@<TRIPOS>BOND
     1     1     2 1   
     2     1     6 1   
     3     1    31 1   
     4     1    32 1   
     5     2     3 1   
     6     2    33 1   
     7     2    34 1   
     8     3     4 1   
     9     3    35 1   
    10     3    36 1   
    11     4     5 1   
    12     4    37 1   
    13     4    38 1   
    14     5     6 ar  
    15     5    14 ar  
    16     6     7 ar  
    17     7     8 ar  
    18     8     9 ar  
    19     8    13 ar  
    20     9    10 ar  
    21     9    39 1   
    22    10    11 ar  
    23    10    40 1   
    24    11    12 ar  
    25    11    41 1   
    26    12    13 ar  
    27    12    42 1   
    28    13    14 ar  
    29    14    15 1   
    30    15    16 1   
    31    15    59 1   
    32    16    17 1   
    33    16    43 1   
    34    16    60 1   
    35    17    18 1   
    36    17    44 1   
    37    17    45 1   
    38    18    19 1   
    39    18    46 1   
    40    18    47 1   
    41    19    20 1   
    42    19    48 1   
    43    19    49 1   
    44    20    21 1   
    45    20    50 1   
    46    20    51 1   
    47    21    22 1   
    48    21    52 1   
    49    21    53 1   
    50    22    23 1   
    51    22    54 1   
    52    23    24 2   
    53    23    25 1   
    54    25    26 ar  
    55    25    30 ar  
    56    26    27 ar  
    57    26    55 1   
    58    27    28 ar  
    59    27    56 1   
    60    28    29 ar  
    61    28    57 1   
    62    29    30 ar  
    63    30    58 1   
@<TRIPOS>SUBSTRUCTURE
     1 TNH         1 TEMP              0 ****  ****    0 ROOT
