@<TRIPOS>MOLECULE
TNI
   27    28     1     0     0
SMALL
No Charge or Current Charge


@<TRIPOS>ATOM
      1 C10         -3.7860     5.3400    18.1070 ca         1 TNI      -0.014900
      2 C15         -0.0870     3.6020    16.8110 c          1 TNI       0.478400
      3 C17         -3.1060     0.3800    13.8670 ca         1 TNI      -0.050000
      4 C02         -2.4610    -0.0080    11.5480 ca         1 TNI       0.153000
      5 C03         -2.6270     1.3610    11.2780 ca         1 TNI      -0.106000
      6 C04         -3.0320     2.2400    12.2980 ca         1 TNI      -0.067000
      7 C05         -3.2750     1.7530    13.5980 ca         1 TNI      -0.103300
      8 C06         -3.7080     2.7010    14.7070 c3         1 TNI       0.213900
      9 C08         -2.5950     3.9080    16.5590 ca         1 TNI       0.135100
     10 C09         -3.8110     4.4860    16.9930 ca         1 TNI      -0.156000
     11 C12         -2.5640     5.5960    18.7560 ca         1 TNI       0.322900
     12 C14         -1.4010     4.2160    17.2670 ca         1 TNI       0.226500
     13 C18         -2.7010    -0.5000    12.8480 ca         1 TNI      -0.017900
     14 N13         -1.3920     5.0510    18.3520 nb         1 TNI      -0.587000
     15 O07         -2.5420     3.0570    15.4690 os         1 TNI      -0.346100
     16 O16          1.0000     3.8040    17.3540 o          1 TNI      -0.483100
     17 Br11        -5.4040     6.1470    18.7350 br         1 TNI      -0.077100
     18 Br19        -2.4830    -2.3610    13.2610 br         1 TNI      -0.065100
     19 H1          -0.1420     2.9310    15.9270 h4         1 TNI       0.016200
     20 H2          -3.2860    -0.0040    14.8690 ha         1 TNI       0.138000
     21 H3          -2.4400     1.7400    10.2770 ha         1 TNI       0.138000
     22 H4          -3.1530     3.2990    12.0780 ha         1 TNI       0.125000
     23 H5          -4.1740     3.5940    14.2690 h1         1 TNI       0.053700
     24 H6          -4.4510     2.2030    15.3430 h1         1 TNI       0.053700
     25 H7          -4.7550     4.2890    16.4940 ha         1 TNI       0.139000
     26 H8          -2.5220     6.2560    19.6220 h4         1 TNI       0.046100
     27 Cl01        -1.9520    -1.0820    10.2470 cl         1 TNI      -0.166000
@<TRIPOS>BOND
     1     1    10 ar  
     2     1    11 ar  
     3     1    17 1   
     4     2    12 1   
     5     2    16 2   
     6     2    19 1   
     7     3     7 ar  
     8     3    13 ar  
     9     3    20 1   
    10     4     5 ar  
    11     4    13 ar  
    12     4    27 1   
    13     5     6 ar  
    14     5    21 1   
    15     6     7 ar  
    16     6    22 1   
    17     7     8 1   
    18     8    15 1   
    19     8    23 1   
    20     8    24 1   
    21     9    10 ar  
    22     9    12 ar  
    23     9    15 1   
    24    10    25 1   
    25    11    14 ar  
    26    11    26 1   
    27    12    14 ar  
    28    13    18 1   
@<TRIPOS>SUBSTRUCTURE
     1 TNI         1 TEMP              0 ****  ****    0 ROOT
