@<TRIPOS>MOLECULE
TNI
   27    28     1     0     0
SMALL
abcg2


@<TRIPOS>ATOM
      1 C10         -3.7470     5.3150    18.0220 ca         1 TNI      -0.014900
      2 C15         -0.1630     3.4570    16.8960 c          1 TNI       0.478400
      3 C17         -2.9650     0.4940    13.9100 ca         1 TNI      -0.050000
      4 C02         -2.4690     0.0310    11.5980 ca         1 TNI       0.153000
      5 C03         -2.7850     1.3450    11.2720 ca         1 TNI      -0.106000
      6 C04         -3.1830     2.2300    12.2640 ca         1 TNI      -0.067000
      7 C05         -3.2770     1.8120    13.5880 ca         1 TNI      -0.103300
      8 C06         -3.6890     2.7650    14.6680 c3         1 TNI       0.213900
      9 C08         -2.6060     3.8830    16.5060 ca         1 TNI       0.135100
     10 C09         -3.7930     4.5060    16.9060 ca         1 TNI      -0.156000
     11 C12         -2.5520     5.5050    18.7210 ca         1 TNI       0.322900
     12 C14         -1.4380     4.1110    17.2650 ca         1 TNI       0.226500
     13 C18         -2.5580    -0.3930    12.9240 ca         1 TNI      -0.017900
     14 N13         -1.4370     4.9100    18.3380 nb         1 TNI      -0.587000
     15 O07         -2.5030     3.0780    15.4370 os         1 TNI      -0.346100
     16 O16          0.8780     3.6110    17.5030 o          1 TNI      -0.483100
     17 BR11        -5.3220     6.1880    18.6320 br         1 TNI      -0.077100
     18 BR19        -2.1360    -2.1800    13.4280 br         1 TNI      -0.065100
     19 H1          -0.2060     2.7980    16.0160 h4         1 TNI       0.016200
     20 H2          -3.0380     0.1560    14.9350 ha         1 TNI       0.138000
     21 H3          -2.7140     1.6660    10.2420 ha         1 TNI       0.138000
     22 H4          -3.4210     3.2530    12.0010 ha         1 TNI       0.125000
     23 H5          -4.0950     3.6830    14.2420 h1         1 TNI       0.053700
     24 H6          -4.4290     2.3130    15.3320 h1         1 TNI       0.053700
     25 H7          -4.7170     4.3640    16.3670 ha         1 TNI       0.139000
     26 H8          -2.5150     6.1440    19.5950 h4         1 TNI       0.046100
     27 CL01        -1.9720    -1.0450    10.3260 cl         1 TNI      -0.166000
@<TRIPOS>BOND
     1     1    10 ar  
     2     1    11 ar  
     3     1    17 1   
     4     2    12 1   
     5     2    16 2   
     6     2    19 1   
     7     3     7 ar  
     8     3    13 ar  
     9     3    20 1   
    10     4     5 ar  
    11     4    13 ar  
    12     4    27 1   
    13     5     6 ar  
    14     5    21 1   
    15     6     7 ar  
    16     6    22 1   
    17     7     8 1   
    18     8    15 1   
    19     8    23 1   
    20     8    24 1   
    21     9    10 ar  
    22     9    12 ar  
    23     9    15 1   
    24    10    25 1   
    25    11    14 ar  
    26    11    26 1   
    27    12    14 ar  
    28    13    18 1   
@<TRIPOS>SUBSTRUCTURE
     1 TNI         1 TEMP              0 ****  ****    0 ROOT
