@<TRIPOS>MOLECULE
TNJ
   48    52     1     0     0
SMALL
abcg2


@<TRIPOS>ATOM
      1 C1         -37.3040   -27.8430  -155.1060 ca         1 TNJ      -0.090300
      2 C2         -37.0190   -28.4650  -156.3340 ca         1 TNJ       0.285000
      3 C3         -36.3380   -29.6810  -156.3120 ca         1 TNJ       0.114000
      4 C11        -35.6390   -25.7160  -151.9460 cx         1 TNJ      -0.129400
      5 C12        -35.8050   -25.6030  -153.4270 cx         1 TNJ      -0.129400
      6 C13        -36.8320   -28.4210  -153.9160 ca         1 TNJ       0.088600
      7 C14        -38.0460   -28.5710  -158.6240 c5         1 TNJ       0.236800
      8 C15        -38.3240   -27.4750  -159.6180 cx         1 TNJ      -0.123700
      9 C16        -38.9540   -26.2130  -159.1130 cx         1 TNJ      -0.084400
     10 C17        -37.4660   -26.2900  -159.2620 cx         1 TNJ       0.076200
     11 C18        -36.7180   -26.6860  -157.9970 c5         1 TNJ       0.209800
     12 C          -38.2290   -26.6600  -155.1200 c3         1 TNJ      -0.041800
     13 C10        -36.8390   -26.3080  -152.6130 cx         1 TNJ       0.039700
     14 C4         -36.0570   -30.3480  -155.1500 ca         1 TNJ      -0.112000
     15 C5         -36.3120   -29.7300  -153.9240 ca         1 TNJ      -0.085800
     16 C6         -36.1130   -30.4350  -152.6760 cc         1 TNJ      -0.048400
     17 C7         -35.5490   -31.8280  -152.6590 c3         1 TNJ       0.189000
     18 C8         -36.4630   -29.7960  -151.5520 cd         1 TNJ       0.072300
     19 C9         -36.8780   -28.4020  -151.4850 c          1 TNJ       0.549200
     20 F          -35.9710   -30.2490  -157.4730 f          1 TNJ      -0.179000
     21 F1         -36.3710   -30.3860  -150.3570 f          1 TNJ      -0.139500
     22 N1         -36.9190   -27.7490  -152.6930 n          1 TNJ      -0.268000
     23 N2         -37.4390   -27.8460  -157.5110 nh         1 TNJ      -0.839400
     24 H1         -34.8710   -26.3850  -151.5820 hc         1 TNJ       0.082450
     25 H2         -35.7980   -24.8400  -151.3310 hc         1 TNJ       0.082450
     26 H3         -35.1510   -26.2000  -154.0500 hc         1 TNJ       0.082450
     27 H4         -36.0770   -24.6450  -153.8510 hc         1 TNJ       0.082450
     28 H5         -38.9470   -29.0780  -158.2700 h1         1 TNJ       0.052700
     29 H6         -37.4020   -29.3190  -159.0930 h1         1 TNJ       0.052700
     30 H7         -38.4770   -27.7480  -160.6550 hc         1 TNJ       0.103700
     31 H8         -39.4850   -25.6090  -159.8380 hc         1 TNJ       0.081200
     32 H9         -39.3740   -26.1860  -158.1140 hc         1 TNJ       0.081200
     33 H10        -35.6690   -26.9060  -158.2560 h1         1 TNJ       0.040200
     34 H11        -36.6980   -25.8930  -157.2440 h1         1 TNJ       0.040200
     35 H12        -33.7410   -32.7260  -152.7680 hn         1 TNJ       0.396500
     36 H13        -33.8270   -31.3850  -153.6610 hn         1 TNJ       0.396500
     37 H15        -38.9050   -26.7650  -155.9660 hc         1 TNJ       0.051033
     38 H16        -38.8240   -26.6110  -154.2110 hc         1 TNJ       0.051033
     39 H17        -37.7170   -25.7050  -155.2380 hc         1 TNJ       0.051033
     40 H18        -37.7820   -25.8000  -152.4550 h1         1 TNJ       0.100700
     41 H19        -35.6120   -31.3340  -155.1940 ha         1 TNJ       0.131000
     42 H20        -35.8020   -32.3190  -151.7200 h1         1 TNJ       0.047200
     43 H21        -36.0370   -32.4200  -153.4430 h1         1 TNJ       0.047200
     44 H22        -36.6370   -24.5720  -159.8930 hn         1 TNJ       0.405500
     45 H23        -35.9300   -25.9020  -160.5010 hn         1 TNJ       0.405500
     46 O          -37.1050   -27.8430  -150.4260 o          1 TNJ      -0.507000
     47 N3         -36.8270   -25.4980  -160.2570 n8         1 TNJ      -0.963200
     48 N          -34.0950   -31.7770  -152.7670 n8         1 TNJ      -0.986200
@<TRIPOS>BOND
     1     1     2 ar  
     2     1     6 ar  
     3     1    12 1   
     4     2     3 ar  
     5     2    23 1   
     6     3    14 ar  
     7     3    20 1   
     8     4     5 1   
     9     4    13 1   
    10     4    24 1   
    11     4    25 1   
    12     5    13 1   
    13     5    26 1   
    14     5    27 1   
    15     6    15 ar  
    16     6    22 1   
    17     7     8 1   
    18     7    23 1   
    19     7    28 1   
    20     7    29 1   
    21     8     9 1   
    22     8    10 1   
    23     8    30 1   
    24     9    10 1   
    25     9    31 1   
    26     9    32 1   
    27    10    11 1   
    28    10    47 1   
    29    11    23 1   
    30    11    33 1   
    31    11    34 1   
    32    12    37 1   
    33    12    38 1   
    34    12    39 1   
    35    13    22 1   
    36    13    40 1   
    37    14    15 ar  
    38    14    41 1   
    39    15    16 1   
    40    16    17 1   
    41    16    18 2   
    42    17    42 1   
    43    17    43 1   
    44    17    48 1   
    45    18    19 1   
    46    18    21 1   
    47    19    22 1   
    48    19    46 2   
    49    35    48 1   
    50    36    48 1   
    51    44    47 1   
    52    45    47 1   
@<TRIPOS>SUBSTRUCTURE
     1 TNJ         1 TEMP              0 ****  ****    0 ROOT
