@<TRIPOS>MOLECULE
TNJ
   48    52     1     0     0
SMALL
No Charge or Current Charge


@<TRIPOS>ATOM
      1 C1         -37.3500   -27.8290  -155.0910 ca         1 TNJ      -0.090300
      2 C2         -37.0080   -28.4090  -156.3410 ca         1 TNJ       0.285000
      3 C3         -36.2780   -29.6170  -156.3610 ca         1 TNJ       0.114000
      4 C11        -35.7290   -25.7110  -151.6980 cx         1 TNJ      -0.129400
      5 C12        -35.7970   -25.5530  -153.1940 cx         1 TNJ      -0.129400
      6 C13        -36.8750   -28.4260  -153.8780 ca         1 TNJ       0.088600
      7 C14        -38.3840   -28.4010  -158.4970 c5         1 TNJ       0.236800
      8 C15        -38.4160   -27.4200  -159.6790 cx         1 TNJ      -0.123700
      9 C16        -38.9050   -26.0260  -159.3370 cx         1 TNJ      -0.084400
     10 C17        -37.4250   -26.3210  -159.4380 cx         1 TNJ       0.076200
     11 C18        -36.7020   -26.5760  -158.0900 c5         1 TNJ       0.209800
     12 C          -38.3110   -26.6270  -155.0800 c3         1 TNJ      -0.041800
     13 C10        -36.8720   -26.3350  -152.4690 cx         1 TNJ       0.039700
     14 C4         -35.9410   -30.2670  -155.1720 ca         1 TNJ      -0.112000
     15 C5         -36.2530   -29.7010  -153.9170 ca         1 TNJ      -0.085800
     16 C6         -35.9930   -30.4790  -152.6840 cc         1 TNJ      -0.048400
     17 C7         -35.3350   -31.8470  -152.6890 c3         1 TNJ       0.189000
     18 C8         -36.4760   -29.9200  -151.5100 cd         1 TNJ       0.072300
     19 C9         -37.0230   -28.5410  -151.3970 c          1 TNJ       0.549200
     20 F          -35.9250   -30.2000  -157.5340 f          1 TNJ      -0.179000
     21 F1         -36.3890   -30.6050  -150.3480 f          1 TNJ      -0.139500
     22 N1         -37.0310   -27.7930  -152.5880 n          1 TNJ      -0.268000
     23 N2         -37.3920   -27.7900  -157.5630 nh         1 TNJ      -0.839400
     24 H1         -34.9630   -26.3690  -151.2950 hc         1 TNJ       0.082450
     25 H2         -35.9520   -24.8420  -151.0830 hc         1 TNJ       0.082450
     26 H3         -35.0790   -26.1070  -153.7940 hc         1 TNJ       0.082450
     27 H4         -36.0620   -24.5750  -153.5890 hc         1 TNJ       0.082450
     28 H5         -39.3700   -28.5070  -158.0230 h1         1 TNJ       0.052700
     29 H6         -38.0620   -29.4020  -158.8180 h1         1 TNJ       0.052700
     30 H7         -38.5830   -27.7840  -160.6890 hc         1 TNJ       0.103700
     31 H8         -39.3620   -25.4430  -160.1320 hc         1 TNJ       0.081200
     32 H9         -39.3290   -25.8510  -158.3510 hc         1 TNJ       0.081200
     33 H10        -35.6290   -26.7710  -158.2260 h1         1 TNJ       0.040200
     34 H11        -36.8030   -25.7250  -157.4040 h1         1 TNJ       0.040200
     35 H12        -33.4650   -32.6830  -152.8910 hn         1 TNJ       0.396500
     36 H13        -33.6310   -31.2920  -153.6990 hn         1 TNJ       0.396500
     37 H15        -39.0220   -26.6630  -155.9130 hc         1 TNJ       0.051033
     38 H16        -38.9350   -26.6110  -154.1800 hc         1 TNJ       0.051033
     39 H17        -37.7740   -25.6750  -155.1540 hc         1 TNJ       0.051033
     40 H18        -37.8580   -25.8850  -152.3400 h1         1 TNJ       0.100700
     41 H19        -35.4340   -31.2220  -155.2540 ha         1 TNJ       0.131000
     42 H20        -35.5690   -32.3880  -151.7620 h1         1 TNJ       0.047200
     43 H21        -35.7270   -32.4550  -153.5150 h1         1 TNJ       0.047200
     44 H22        -35.7660   -25.3800  -160.1820 hn         1 TNJ       0.405500
     45 H23        -36.3070   -26.5610  -161.1290 hn         1 TNJ       0.405500
     46 O          -37.3790   -28.0530  -150.3280 o          1 TNJ      -0.507000
     47 N3         -36.6380   -25.7870  -160.5410 n8         1 TNJ      -0.963200
     48 N          -33.8650   -31.7410  -152.8060 n8         1 TNJ      -0.986200
@<TRIPOS>BOND
     1     1     2 ar  
     2     1     6 ar  
     3     1    12 1   
     4     2     3 ar  
     5     2    23 1   
     6     3    14 ar  
     7     3    20 1   
     8     4     5 1   
     9     4    13 1   
    10     4    24 1   
    11     4    25 1   
    12     5    13 1   
    13     5    26 1   
    14     5    27 1   
    15     6    15 ar  
    16     6    22 1   
    17     7     8 1   
    18     7    23 1   
    19     7    28 1   
    20     7    29 1   
    21     8     9 1   
    22     8    10 1   
    23     8    30 1   
    24     9    10 1   
    25     9    31 1   
    26     9    32 1   
    27    10    11 1   
    28    10    47 1   
    29    11    23 1   
    30    11    33 1   
    31    11    34 1   
    32    12    37 1   
    33    12    38 1   
    34    12    39 1   
    35    13    22 1   
    36    13    40 1   
    37    14    15 ar  
    38    14    41 1   
    39    15    16 1   
    40    16    17 1   
    41    16    18 2   
    42    17    42 1   
    43    17    43 1   
    44    17    48 1   
    45    18    19 1   
    46    18    21 1   
    47    19    22 1   
    48    19    46 2   
    49    35    48 1   
    50    36    48 1   
    51    44    47 1   
    52    45    47 1   
@<TRIPOS>SUBSTRUCTURE
     1 TNJ         1 TEMP              0 ****  ****    0 ROOT
