@<TRIPOS>MOLECULE
TNK
   51    53     1     0     0
SMALL
No Charge or Current Charge


@<TRIPOS>ATOM
      1 C1          -1.4530   -34.8790    26.5930 ca         1 TNK      -0.089300
      2 C2          -2.2190   -34.4000    27.6740 ca         1 TNK      -0.108000
      3 C3          -1.6990   -33.4200    28.5380 ca         1 TNK      -0.105500
      4 C4          -0.4070   -32.9110    28.3280 ca         1 TNK      -0.107000
      5 C5           0.3640   -33.3840    27.2540 ca         1 TNK      -0.105500
      6 C6          -0.1550   -34.3640    26.3900 ca         1 TNK      -0.108000
      7 C7          -1.6450   -35.7930    24.1930 cc         1 TNK       0.115400
      8 N8          -2.3750   -34.8830    23.3990 n          1 TNK      -0.312000
      9 C9          -2.1600   -34.7650    22.0190 c          1 TNK       0.621000
     10 O9          -2.7770   -33.9980    21.2960 o          1 TNK      -0.551000
     11 N10         -1.2030   -35.5570    21.4970 ns         1 TNK      -0.466500
     12 C11         -0.3940   -36.4340    22.1290 c          1 TNK       0.590200
     13 O11          0.4220   -37.0700    21.4840 o          1 TNK      -0.530000
     14 C12         -0.6150   -36.5320    23.6040 cd         1 TNK      -0.254400
     15 C13         -2.0410   -35.9390    25.6610 c3         1 TNK      -0.015900
     16 C14          0.3210   -37.4850    24.3650 c3         1 TNK       0.010500
     17 C15         -0.0180   -38.9670    24.0940 c3         1 TNK      -0.087100
     18 C16          1.8280   -37.1810    24.1760 c3         1 TNK      -0.087100
     19 C17         -3.3800   -33.9670    23.9820 c3         1 TNK       0.324000
     20 O17         -4.6480   -34.6360    24.0130 os         1 TNK      -0.467000
     21 C18         -5.7010   -33.8680    24.6130 c3         1 TNK       0.214900
     22 C19         -6.9630   -34.7190    24.6370 ca         1 TNK      -0.089300
     23 C20         -7.1850   -35.6280    25.6900 ca         1 TNK      -0.090500
     24 C21         -8.3500   -36.4140    25.7150 ca         1 TNK      -0.112000
     25 C22         -9.3010   -36.2960    24.6870 ca         1 TNK      -0.102000
     26 C23         -9.0840   -35.3930    23.6330 ca         1 TNK      -0.112000
     27 C24         -7.9190   -34.6070    23.6070 ca         1 TNK      -0.090500
     28 H2          -3.2210   -34.7860    27.8490 ha         1 TNK       0.116500
     29 H3          -2.2980   -33.0560    29.3700 ha         1 TNK       0.116500
     30 H4          -0.0050   -32.1530    28.9960 ha         1 TNK       0.116000
     31 H5           1.3660   -32.9920    27.0900 ha         1 TNK       0.116500
     32 H6           0.4560   -34.7160    25.5640 ha         1 TNK       0.116500
     33 HN1         -1.0640   -35.4730    20.5030 hn         1 TNK       0.344500
     34 H131        -1.7950   -36.9360    26.0390 hc         1 TNK       0.078200
     35 H132        -3.1340   -35.9330    25.7410 hc         1 TNK       0.078200
     36 H14          0.1820   -37.3450    25.4410 hc         1 TNK       0.041700
     37 H151         0.5880   -39.6240    24.7300 hc         1 TNK       0.040033
     38 H152        -1.0740   -39.1650    24.3130 hc         1 TNK       0.040033
     39 H153         0.1730   -39.2370    23.0490 hc         1 TNK       0.040033
     40 H161         2.4180   -37.7070    24.9360 hc         1 TNK       0.040033
     41 H162         2.1970   -37.5050    23.1970 hc         1 TNK       0.040033
     42 H163         2.0240   -36.1070    24.2830 hc         1 TNK       0.040033
     43 H171        -3.0530   -33.6780    24.9860 h2         1 TNK       0.057700
     44 H172        -3.4260   -33.0530    23.3790 h2         1 TNK       0.057700
     45 H181        -5.4350   -33.5830    25.6400 h1         1 TNK       0.034700
     46 H182        -5.8840   -32.9480    24.0420 h1         1 TNK       0.034700
     47 H20         -6.4520   -35.7270    26.4880 ha         1 TNK       0.113000
     48 H21         -8.5160   -37.1150    26.5310 ha         1 TNK       0.114000
     49 H22        -10.2020   -36.9050    24.7070 ha         1 TNK       0.114000
     50 H23         -9.8180   -35.3020    22.8350 ha         1 TNK       0.114000
     51 H24         -7.7570   -33.9120    22.7860 ha         1 TNK       0.113000
@<TRIPOS>BOND
     1     1     2 ar  
     2     1     6 ar  
     3     1    15 1   
     4     2     3 ar  
     5     2    28 1   
     6     3     4 ar  
     7     3    29 1   
     8     4     5 ar  
     9     4    30 1   
    10     5     6 ar  
    11     5    31 1   
    12     6    32 1   
    13     7     8 1   
    14     7    14 2   
    15     7    15 1   
    16     8     9 1   
    17     8    19 1   
    18     9    10 2   
    19     9    11 1   
    20    11    12 1   
    21    11    33 1   
    22    12    13 2   
    23    12    14 1   
    24    14    16 1   
    25    15    34 1   
    26    15    35 1   
    27    16    17 1   
    28    16    18 1   
    29    16    36 1   
    30    17    37 1   
    31    17    38 1   
    32    17    39 1   
    33    18    40 1   
    34    18    41 1   
    35    18    42 1   
    36    19    20 1   
    37    19    43 1   
    38    19    44 1   
    39    20    21 1   
    40    21    22 1   
    41    21    45 1   
    42    21    46 1   
    43    22    23 ar  
    44    22    27 ar  
    45    23    24 ar  
    46    23    47 1   
    47    24    25 ar  
    48    24    48 1   
    49    25    26 ar  
    50    25    49 1   
    51    26    27 ar  
    52    26    50 1   
    53    27    51 1   
@<TRIPOS>SUBSTRUCTURE
     1 TNK         1 TEMP              0 ****  ****    0 ROOT
