@<TRIPOS>MOLECULE
TNK
   51    53     1     0     0
SMALL
abcg2


@<TRIPOS>ATOM
      1 C1          -1.5880   -34.8650    26.4530 ca         1 TNK      -0.089300
      2 C2          -2.2730   -34.6090    27.6400 ca         1 TNK      -0.108000
      3 C3          -1.7840   -33.6930    28.5580 ca         1 TNK      -0.105500
      4 C4          -0.6010   -33.0110    28.3000 ca         1 TNK      -0.107000
      5 C5           0.0850   -33.2560    27.1200 ca         1 TNK      -0.105500
      6 C6          -0.4060   -34.1780    26.2020 ca         1 TNK      -0.108000
      7 C7          -1.6500   -35.8150    24.0860 cc         1 TNK       0.115400
      8 N8          -2.3200   -34.9200    23.2590 n          1 TNK      -0.312000
      9 C9          -2.0880   -34.8640    21.8990 c          1 TNK       0.621000
     10 O9          -2.7160   -34.1500    21.1450 o          1 TNK      -0.551000
     11 N10         -1.0840   -35.6770    21.4630 ns         1 TNK      -0.466500
     12 C11         -0.2850   -36.5130    22.2180 c          1 TNK       0.590200
     13 O11          0.5990   -37.1430    21.6660 o          1 TNK      -0.530000
     14 C12         -0.6180   -36.5710    23.6340 cd         1 TNK      -0.254400
     15 C13         -2.1530   -35.8970    25.5010 c3         1 TNK      -0.015900
     16 C14          0.1970   -37.4830    24.5250 c3         1 TNK       0.010500
     17 C15         -0.0160   -38.9620    24.2010 c3         1 TNK      -0.087100
     18 C16          1.6830   -37.1120    24.5440 c3         1 TNK      -0.087100
     19 C17         -3.3240   -34.0180    23.7710 c3         1 TNK       0.324000
     20 O17         -4.5650   -34.6630    23.7550 os         1 TNK      -0.467000
     21 C18         -5.5960   -33.8430    24.2640 c3         1 TNK       0.214900
     22 C19         -6.8200   -34.6780    24.5050 ca         1 TNK      -0.089300
     23 C20         -6.7300   -35.8780    25.2100 ca         1 TNK      -0.090500
     24 C21         -7.8670   -36.6300    25.4640 ca         1 TNK      -0.112000
     25 C22         -9.1100   -36.1920    25.0200 ca         1 TNK      -0.102000
     26 C23         -9.2070   -34.9990    24.3180 ca         1 TNK      -0.112000
     27 C24         -8.0650   -34.2500    24.0600 ca         1 TNK      -0.090500
     28 H2          -3.2020   -35.1290    27.8450 ha         1 TNK       0.116500
     29 H3          -2.3300   -33.5070    29.4740 ha         1 TNK       0.116500
     30 H4          -0.2190   -32.2920    29.0140 ha         1 TNK       0.116000
     31 H5           1.0060   -32.7290    26.9070 ha         1 TNK       0.116500
     32 H6           0.1440   -34.3520    25.2850 ha         1 TNK       0.116500
     33 HN1         -0.8920   -35.6410    20.4700 hn         1 TNK       0.344500
     34 H131        -1.9410   -36.8920    25.8900 hc         1 TNK       0.078200
     35 H132        -3.2420   -35.8330    25.5050 hc         1 TNK       0.078200
     36 H14         -0.1470   -37.3360    25.5490 hc         1 TNK       0.041700
     37 H151         0.5240   -39.5830    24.9170 hc         1 TNK       0.040033
     38 H152        -1.0720   -39.2300    24.2600 hc         1 TNK       0.040033
     39 H153         0.3430   -39.2150    23.2050 hc         1 TNK       0.040033
     40 H161         2.1880   -37.6810    25.3260 hc         1 TNK       0.040033
     41 H162         2.1770   -37.3320    23.6000 hc         1 TNK       0.040033
     42 H163         1.8230   -36.0530    24.7640 hc         1 TNK       0.040033
     43 H171        -3.0480   -33.7080    24.7830 h2         1 TNK       0.057700
     44 H172        -3.3270   -33.1200    23.1490 h2         1 TNK       0.057700
     45 H181        -5.2790   -33.3760    25.2070 h1         1 TNK       0.034700
     46 H182        -5.8230   -33.0260    23.5670 h1         1 TNK       0.034700
     47 H20         -5.7700   -36.2260    25.5700 ha         1 TNK       0.113000
     48 H21         -7.7850   -37.5590    26.0120 ha         1 TNK       0.114000
     49 H22         -9.9970   -36.7800    25.2190 ha         1 TNK       0.114000
     50 H23        -10.1690   -34.6530    23.9650 ha         1 TNK       0.114000
     51 H24         -8.1460   -33.3240    23.5030 ha         1 TNK       0.113000
@<TRIPOS>BOND
     1     1     2 ar  
     2     1     6 ar  
     3     1    15 1   
     4     2     3 ar  
     5     2    28 1   
     6     3     4 ar  
     7     3    29 1   
     8     4     5 ar  
     9     4    30 1   
    10     5     6 ar  
    11     5    31 1   
    12     6    32 1   
    13     7     8 1   
    14     7    14 2   
    15     7    15 1   
    16     8     9 1   
    17     8    19 1   
    18     9    10 2   
    19     9    11 1   
    20    11    12 1   
    21    11    33 1   
    22    12    13 2   
    23    12    14 1   
    24    14    16 1   
    25    15    34 1   
    26    15    35 1   
    27    16    17 1   
    28    16    18 1   
    29    16    36 1   
    30    17    37 1   
    31    17    38 1   
    32    17    39 1   
    33    18    40 1   
    34    18    41 1   
    35    18    42 1   
    36    19    20 1   
    37    19    43 1   
    38    19    44 1   
    39    20    21 1   
    40    21    22 1   
    41    21    45 1   
    42    21    46 1   
    43    22    23 ar  
    44    22    27 ar  
    45    23    24 ar  
    46    23    47 1   
    47    24    25 ar  
    48    24    48 1   
    49    25    26 ar  
    50    25    49 1   
    51    26    27 ar  
    52    26    50 1   
    53    27    51 1   
@<TRIPOS>SUBSTRUCTURE
     1 TNK         1 TEMP              0 ****  ****    0 ROOT
