@<TRIPOS>MOLECULE
TNL
   21    21     1     0     0
SMALL
bcc


@<TRIPOS>ATOM
      1 C1          -0.0500     0.0570    -1.2750 ca         1 TNL       0.095700
      2 C7          -0.1210     0.1990    -2.7650 c3         1 TNL      -0.072800
      3 C2           1.1580     0.0180    -0.5760 ca         1 TNL      -0.196200
      4 N2           2.4270    -0.0030    -1.3000 no         1 TNL       0.312700
      5 O21          3.3000     0.7260    -0.9040 o          1 TNL      -0.178000
      6 O22          2.5240    -0.7700    -2.2250 o          1 TNL      -0.178000
      7 C3           1.2580    -0.0120     0.8010 ca         1 TNL       0.017000
      8 C4           0.0910    -0.0350     1.5350 ca         1 TNL      -0.198200
      9 N4           0.1640    -0.0840     2.9900 no         1 TNL       0.322200
     10 O41         -0.8760    -0.0960     3.6000 o          1 TNL      -0.183000
     11 O42          1.2590    -0.1100     3.4920 o          1 TNL      -0.183000
     12 C5          -1.1440    -0.0020     0.9210 ca         1 TNL       0.017000
     13 C6          -1.1840     0.0270    -0.4590 ca         1 TNL      -0.196200
     14 N6          -2.5190     0.0120    -1.0510 no         1 TNL       0.312700
     15 O61         -3.3520     0.7270    -0.5530 o          1 TNL      -0.178000
     16 O62         -2.7080    -0.7350    -1.9770 o          1 TNL      -0.178000
     17 H7C1        -0.1500    -0.7770    -3.2470 hc         1 TNL       0.083367
     18 H7C2        -1.0060     0.7500    -3.0700 hc         1 TNL       0.083367
     19 H7C3         0.7370     0.7410    -3.1520 hc         1 TNL       0.083367
     20 H3           2.2250    -0.0330     1.2850 ha         1 TNL       0.207000
     21 H5          -2.0570    -0.0150     1.5000 ha         1 TNL       0.207000
@<TRIPOS>BOND
     1     1     2 1   
     2     1     3 ar  
     3     1    13 ar  
     4     2    17 1   
     5     2    18 1   
     6     2    19 1   
     7     3     4 1   
     8     3     7 ar  
     9     4     5 1   
    10     4     6 1   
    11     7     8 ar  
    12     7    20 1   
    13     8     9 1   
    14     8    12 ar  
    15     9    10 1   
    16     9    11 1   
    17    12    13 ar  
    18    12    21 1   
    19    13    14 1   
    20    14    15 1   
    21    14    16 1   
@<TRIPOS>SUBSTRUCTURE
     1 TNL         1 TEMP              0 ****  ****    0 ROOT
