@<TRIPOS>MOLECULE
TNL
   21    21     1     0     0
SMALL
No Charge or Current Charge


@<TRIPOS>ATOM
      1 C1          -0.0490     0.0760    -1.2670 ca         1 TNL       0.095700
      2 C7          -0.1250     0.2270    -2.7930 c3         1 TNL      -0.072800
      3 C2           1.2070     0.0260    -0.6040 ca         1 TNL      -0.196200
      4 N2           2.4920     0.0070    -1.3570 no         1 TNL       0.692700
      5 O21          3.4220     0.6940    -0.9180 o          1 TNL      -0.368000
      6 O22          2.6210    -0.8290    -2.2590 o          1 TNL      -0.368000
      7 C3           1.2720    -0.0160     0.8060 ca         1 TNL       0.035000
      8 C4           0.0930    -0.0270     1.5790 ca         1 TNL      -0.198200
      9 N4           0.1680    -0.0730     3.0730 no         1 TNL       0.702200
     10 O41         -0.8930    -0.0860     3.7120 o          1 TNL      -0.373000
     11 O42          1.2860    -0.0940     3.6020 o          1 TNL      -0.373000
     12 C5          -1.1570    -0.0090     0.9270 ca         1 TNL       0.035000
     13 C6          -1.2330     0.0330    -0.4820 ca         1 TNL      -0.196200
     14 N6          -2.5870     0.0230    -1.1020 no         1 TNL       0.692700
     15 O61         -3.4640     0.7160    -0.5730 o          1 TNL      -0.368000
     16 O62         -2.8100    -0.8120    -1.9870 o          1 TNL      -0.368000
     17 H7C1        -0.1530    -0.7530    -3.2830 hc         1 TNL       0.083367
     18 H7C2        -1.0110     0.7880    -3.1120 hc         1 TNL       0.083367
     19 H7C3         0.7280     0.7820    -3.1990 hc         1 TNL       0.083367
     20 H3           2.2460    -0.0500     1.2950 ha         1 TNL       0.189000
     21 H5          -2.0780    -0.0360     1.5110 ha         1 TNL       0.189000
@<TRIPOS>BOND
     1     1     2 1   
     2     1     3 ar  
     3     1    13 ar  
     4     2    17 1   
     5     2    18 1   
     6     2    19 1   
     7     3     4 1   
     8     3     7 ar  
     9     4     5 1   
    10     4     6 1   
    11     7     8 ar  
    12     7    20 1   
    13     8     9 1   
    14     8    12 ar  
    15     9    10 1   
    16     9    11 1   
    17    12    13 ar  
    18    12    21 1   
    19    13    14 1   
    20    14    15 1   
    21    14    16 1   
@<TRIPOS>SUBSTRUCTURE
     1 TNL         1 TEMP              0 ****  ****    0 ROOT
