@<TRIPOS>MOLECULE
TNN
   55    60     1     0     0
SMALL
No Charge or Current Charge


@<TRIPOS>ATOM
      1 CAB          5.8460     0.1940    -2.3660 c3         1 TNN      -0.130100
      2 CBF          4.8840     1.0030    -1.4520 c3         1 TNN       0.195300
      3 OAG          4.9010     2.3400    -1.9800 oh         1 TNN      -0.704000
      4 CBJ          3.4310     0.4390    -1.3430 cx         1 TNN       0.057000
      5 OAT          3.1920    -0.7400    -2.1690 op         1 TNN      -0.381000
      6 CBI          3.0360    -0.9170    -0.7370 cx         1 TNN       0.162300
      7 CAY          1.5700    -1.1800    -0.3210 ca         1 TNN      -0.074300
      8 CAQ          1.1530    -2.3910     0.2670 ca         1 TNN      -0.059000
      9 CAU         -0.1790    -2.6130     0.6220 ca         1 TNN       0.175100
     10 OAE         -0.4900    -3.8110     1.1940 oh         1 TNN      -0.545100
     11 CBC         -1.1680    -1.6300     0.3920 ca         1 TNN      -0.215600
     12 CAZ         -2.6060    -1.8930     0.7880 c          1 TNN       0.615300
     13 OAC         -2.9250    -2.9480     1.3300 o          1 TNN      -0.576100
     14 CBB         -3.6410    -0.8370     0.5020 ca         1 TNN      -0.130600
     15 CAP         -4.9870    -1.0870     0.8520 ca         1 TNN      -0.054000
     16 CAO         -5.9870    -0.1380     0.6080 ca         1 TNN      -0.171000
     17 CAW         -5.6580     1.0910     0.0050 ca         1 TNN       0.120100
     18 OAS         -6.6220     2.0560    -0.2510 os         1 TNN      -0.311100
     19 CAA         -8.0110     1.8700     0.0760 c3         1 TNN       0.143900
     20 CAV         -4.3120     1.3550    -0.3500 ca         1 TNN       0.190100
     21 OAF         -4.0060     2.5550    -0.9340 oh         1 TNN      -0.524100
     22 CBD         -3.2900     0.3950    -0.1060 ca         1 TNN      -0.224600
     23 CBA         -1.8470     0.6720    -0.4820 c          1 TNN       0.630300
     24 OAD         -1.5710     1.7610    -0.9800 o          1 TNN      -0.619100
     25 CBE         -0.7900    -0.3990    -0.2250 ca         1 TNN      -0.193600
     26 CAX          0.5770    -0.1970    -0.5840 ca         1 TNN       0.364000
     27 NAR          0.9850     0.9810    -1.2050 nu         1 TNN      -0.773200
     28 CBH          2.3340     1.5100    -1.0350 c6         1 TNN       0.344600
     29 CAL          2.4750     1.9450     0.3760 c1         1 TNN      -0.147100
     30 CAJ          2.6610     2.0760     1.5700 cg         1 TNN      -0.140300
     31 CAN          2.9920     1.9050     2.9610 ce         1 TNN      -0.039700
     32 CAM          3.5840     0.7480     3.4070 cf         1 TNN      -0.060700
     33 CAI          3.9020    -0.3080     2.4880 ch         1 TNN      -0.117300
     34 CAK          4.0670    -0.9990     1.5030 c1         1 TNN      -0.189100
     35 CBG          4.1560    -1.5690     0.1560 c3         1 TNN       0.295400
     36 OAH          4.1670    -2.9990     0.1940 oh         1 TNN      -0.693000
     37 HAF          6.8510     0.6340    -2.3440 hc         1 TNN       0.052033
     38 HAD          5.9440    -0.8530    -2.0650 hc         1 TNN       0.052033
     39 HAE          5.4970     0.2010    -3.4050 hc         1 TNN       0.052033
     40 HBF          5.3070     1.0170    -0.4360 h1         1 TNN       0.086700
     41 HAG          4.8270     2.2660    -2.9590 ho         1 TNN       0.505000
     42 HAQ          1.8420    -3.2000     0.4580 ha         1 TNN       0.158000
     43 HBI         -1.4640    -3.7870     1.3850 ho         1 TNN       0.517000
     44 HAP         -5.2670    -2.0300     1.3190 ha         1 TNN       0.139000
     45 HAO         -7.0070    -0.3760     0.8940 ha         1 TNN       0.126000
     46 HAA         -8.4250     1.0050    -0.4560 h1         1 TNN       0.045033
     47 HAB         -8.1400     1.7180     1.1550 h1         1 TNN       0.045033
     48 HAC         -8.5900     2.7560    -0.2130 h1         1 TNN       0.045033
     49 HBJ         -3.0240     2.5380    -1.0860 ho         1 TNN       0.516000
     50 HAR          0.2330     1.6580    -1.3360 hn         1 TNN       0.365000
     51 HBH          2.4730     2.4010    -1.6660 h1         1 TNN       0.097700
     52 HAN          2.7530     2.7110     3.6560 ha         1 TNN       0.201000
     53 HAM          3.8270     0.6220     4.4640 ha         1 TNN       0.202000
     54 HBG          5.1350    -1.2560    -0.2120 h1         1 TNN       0.055700
     55 HAH          4.8470    -3.2480     0.8610 ho         1 TNN       0.519000
@<TRIPOS>BOND
     1     1     2 1   
     2     1    37 1   
     3     1    38 1   
     4     1    39 1   
     5     2     3 1   
     6     2     4 1   
     7     2    40 1   
     8     3    41 1   
     9     4     5 1   
    10     4     6 1   
    11     4    28 1   
    12     5     6 1   
    13     6     7 1   
    14     6    35 1   
    15     7     8 ar  
    16     7    26 ar  
    17     8     9 ar  
    18     8    42 1   
    19     9    10 1   
    20     9    11 ar  
    21    10    43 1   
    22    11    12 1   
    23    11    25 ar  
    24    12    13 2   
    25    12    14 1   
    26    14    15 ar  
    27    14    22 ar  
    28    15    16 ar  
    29    15    44 1   
    30    16    17 ar  
    31    16    45 1   
    32    17    18 1   
    33    17    20 ar  
    34    18    19 1   
    35    19    46 1   
    36    19    47 1   
    37    19    48 1   
    38    20    21 1   
    39    20    22 ar  
    40    21    49 1   
    41    22    23 1   
    42    23    24 2   
    43    23    25 1   
    44    25    26 ar  
    45    26    27 1   
    46    27    28 1   
    47    27    50 1   
    48    28    29 1   
    49    28    51 1   
    50    29    30 3   
    51    30    31 1   
    52    31    32 2   
    53    31    52 1   
    54    32    33 1   
    55    32    53 1   
    56    33    34 3   
    57    34    35 1   
    58    35    36 1   
    59    35    54 1   
    60    36    55 1   
@<TRIPOS>SUBSTRUCTURE
     1 TNN         1 TEMP              0 ****  ****    0 ROOT
