@<TRIPOS>MOLECULE
TNN
   55    60     1     0     0
SMALL
bcc


@<TRIPOS>ATOM
      1 CAB          5.5350     0.3200    -2.4720 c3         1 TNN      -0.130100
      2 CBF          4.7770     0.9400    -1.3070 c3         1 TNN       0.172100
      3 OAG          4.8250     2.3450    -1.3750 oh         1 TNN      -0.581800
      4 CBJ          3.3140     0.4400    -1.2200 cx         1 TNN       0.033800
      5 OAT          2.9500    -0.6290    -2.0600 op         1 TNN      -0.334600
      6 CBI          2.9290    -0.8600    -0.6540 cx         1 TNN       0.139100
      7 CAY          1.5320    -1.0390    -0.1300 ca         1 TNN      -0.074300
      8 CAQ          1.1680    -2.1440     0.5900 ca         1 TNN      -0.077000
      9 CAU         -0.1650    -2.3800     0.9680 ca         1 TNN       0.175100
     10 OAE         -0.4000    -3.4860     1.6670 oh         1 TNN      -0.506100
     11 CBC         -1.1560    -1.4860     0.5780 ca         1 TNN      -0.215600
     12 CAZ         -2.5380    -1.7660     0.9580 c          1 TNN       0.615300
     13 OAC         -2.8230    -2.7810     1.6020 o          1 TNN      -0.576100
     14 CBB         -3.5760    -0.8150     0.5700 ca         1 TNN      -0.130600
     15 CAP         -4.8930    -1.0600     0.9030 ca         1 TNN      -0.072000
     16 CAO         -5.8920    -0.1610     0.5480 ca         1 TNN      -0.189000
     17 CAW         -5.5820     0.9960    -0.1430 ca         1 TNN       0.120100
     18 OAS         -6.4570     1.9230    -0.5320 os         1 TNN      -0.287900
     19 CAA         -7.8270     1.7300    -0.2190 c3         1 TNN       0.120700
     20 CAV         -4.2350     1.2650    -0.4960 ca         1 TNN       0.190100
     21 OAF         -4.0110     2.3900    -1.1610 oh         1 TNN      -0.485100
     22 CBD         -3.2350     0.3560    -0.1390 ca         1 TNN      -0.224600
     23 CBA         -1.8470     0.6290    -0.5230 c          1 TNN       0.630300
     24 OAD         -1.5950     1.6620    -1.1650 o          1 TNN      -0.619100
     25 CBE         -0.8030    -0.3160    -0.1520 ca         1 TNN      -0.193600
     26 CAX          0.5410    -0.0760    -0.4900 ca         1 TNN       0.225600
     27 NAR          0.9500     1.0320    -1.1570 nu         1 TNN      -0.739600
     28 CBH          2.2820     1.5380    -0.9660 c6         1 TNN       0.344600
     29 CAL          2.5380     1.9220     0.4340 c1         1 TNN      -0.147100
     30 CAJ          2.8040     1.9310     1.6110 cg         1 TNN      -0.140300
     31 CAN          3.2040     1.7230     2.9550 ce         1 TNN       0.010300
     32 CAM          3.7920     0.5610     3.3100 cf         1 TNN      -0.010700
     33 CAI          4.0080    -0.4390     2.3300 ch         1 TNN      -0.117300
     34 CAK          4.0850    -1.1600     1.3650 c1         1 TNN      -0.189100
     35 CBG          4.0430    -1.6820    -0.0110 c3         1 TNN       0.272200
     36 OAH          3.8230    -3.0540    -0.1550 oh         1 TNN      -0.570800
     37 HAF          6.5600     0.6900    -2.4690 hc         1 TNN       0.052033
     38 HAD          5.5800    -0.7660    -2.4290 hc         1 TNN       0.052033
     39 HAE          5.0750     0.5900    -3.4250 hc         1 TNN       0.052033
     40 HBF          5.2790     0.6920    -0.3690 h1         1 TNN       0.086700
     41 HAG          4.6680     2.6190    -2.2850 ho         1 TNN       0.406000
     42 HAQ          1.8960    -2.8930     0.8630 ha         1 TNN       0.176000
     43 HBI         -1.3730    -3.5220     1.8310 ho         1 TNN       0.478000
     44 HAP         -5.1610    -1.9570     1.4430 ha         1 TNN       0.157000
     45 HAO         -6.9140    -0.3840     0.8210 ha         1 TNN       0.144000
     46 HAA         -8.2230     0.8260    -0.6870 h1         1 TNN       0.045033
     47 HAB         -7.9890     1.6760     0.8590 h1         1 TNN       0.045033
     48 HAC         -8.3550     2.5940    -0.6140 h1         1 TNN       0.045033
     49 HBJ         -3.0420     2.4270    -1.3390 ho         1 TNN       0.477000
     50 HAR          0.2340     1.7210    -1.3440 hn         1 TNN       0.469800
     51 HBH          2.4030     2.3790    -1.6460 h1         1 TNN       0.097700
     52 HAN          3.0410     2.4970     3.6940 ha         1 TNN       0.151000
     53 HAM          4.1000     0.3930     4.3340 ha         1 TNN       0.152000
     54 HBG          4.9940    -1.4130    -0.4840 h1         1 TNN       0.055700
     55 HAH          4.6000    -3.5240     0.1680 ho         1 TNN       0.420000
@<TRIPOS>BOND
     1     1     2 1   
     2     1    37 1   
     3     1    38 1   
     4     1    39 1   
     5     2     3 1   
     6     2     4 1   
     7     2    40 1   
     8     3    41 1   
     9     4     5 1   
    10     4     6 1   
    11     4    28 1   
    12     5     6 1   
    13     6     7 1   
    14     6    35 1   
    15     7     8 ar  
    16     7    26 ar  
    17     8     9 ar  
    18     8    42 1   
    19     9    10 1   
    20     9    11 ar  
    21    10    43 1   
    22    11    12 1   
    23    11    25 ar  
    24    12    13 2   
    25    12    14 1   
    26    14    15 ar  
    27    14    22 ar  
    28    15    16 ar  
    29    15    44 1   
    30    16    17 ar  
    31    16    45 1   
    32    17    18 1   
    33    17    20 ar  
    34    18    19 1   
    35    19    46 1   
    36    19    47 1   
    37    19    48 1   
    38    20    21 1   
    39    20    22 ar  
    40    21    49 1   
    41    22    23 1   
    42    23    24 2   
    43    23    25 1   
    44    25    26 ar  
    45    26    27 1   
    46    27    28 1   
    47    27    50 1   
    48    28    29 1   
    49    28    51 1   
    50    29    30 3   
    51    30    31 1   
    52    31    32 2   
    53    31    52 1   
    54    32    33 1   
    55    32    53 1   
    56    33    34 3   
    57    34    35 1   
    58    35    36 1   
    59    35    54 1   
    60    36    55 1   
@<TRIPOS>SUBSTRUCTURE
     1 TNN         1 TEMP              0 ****  ****    0 ROOT
