@<TRIPOS>MOLECULE
TNO
   26    27     1     0     0
SMALL
No Charge or Current Charge


@<TRIPOS>ATOM
      1 C01        -22.6510    18.5600   -14.3210 c3         1 TNO       0.141900
      2 C03        -23.2210    17.2930   -12.2700 ca         1 TNO       0.104100
      3 C04        -23.7400    17.3070   -10.9520 ca         1 TNO       0.142100
      4 C06        -23.8200    16.1140   -10.2150 ca         1 TNO      -0.194000
      5 C07        -23.3930    14.9020   -10.7830 ca         1 TNO      -0.064000
      6 C08        -22.8890    14.8690   -12.0960 ca         1 TNO      -0.093800
      7 C09        -22.7920    16.0680   -12.8320 ca         1 TNO      -0.131000
      8 C10        -22.4330    13.5700   -12.6700 ce         1 TNO      -0.013200
      9 C11        -22.6340    13.0410   -13.9290 cd         1 TNO      -0.135600
     10 C13        -23.3090    12.4740   -16.3320 c          1 TNO       0.599600
     11 C16        -22.1780    11.7100   -14.3760 c          1 TNO       0.586200
     12 N15        -22.5940    11.5350   -15.6570 ns         1 TNO      -0.481500
     13 O02        -23.1460    18.4860   -12.9720 os         1 TNO      -0.320100
     14 O05        -24.1640    18.4750   -10.3760 oh         1 TNO      -0.504100
     15 O14        -23.7100    12.3700   -17.4780 o          1 TNO      -0.466000
     16 O17        -21.5430    10.8890   -13.7360 o          1 TNO      -0.494000
     17 S12        -23.5400    13.8750   -15.2020 ss         1 TNO      -0.196200
     18 H1         -22.6890    19.5940   -14.6840 h1         1 TNO       0.044700
     19 H2         -21.6090    18.2200   -14.3740 h1         1 TNO       0.044700
     20 H3         -23.2590    17.9410   -14.9940 h1         1 TNO       0.044700
     21 H4         -24.2120    16.1170    -9.2010 ha         1 TNO       0.121000
     22 H5         -23.4610    13.9830   -10.2030 ha         1 TNO       0.120000
     23 H6         -22.3690    16.0350   -13.8300 ha         1 TNO       0.130000
     24 H7         -21.9050    12.9210   -11.9690 ha         1 TNO       0.199000
     25 H9         -22.3660    10.6720   -16.1250 hn         1 TNO       0.351500
     26 H10        -24.4830    18.2770    -9.4710 ho         1 TNO       0.466000
@<TRIPOS>BOND
     1     1    13 1   
     2     1    18 1   
     3     1    19 1   
     4     1    20 1   
     5     2     3 ar  
     6     2     7 ar  
     7     2    13 1   
     8     3     4 ar  
     9     3    14 1   
    10     4     5 ar  
    11     4    21 1   
    12     5     6 ar  
    13     5    22 1   
    14     6     7 ar  
    15     6     8 1   
    16     7    23 1   
    17     8     9 2   
    18     8    24 1   
    19     9    11 1   
    20     9    17 1   
    21    10    12 1   
    22    10    15 2   
    23    10    17 1   
    24    11    12 1   
    25    11    16 2   
    26    12    25 1   
    27    14    26 1   
@<TRIPOS>SUBSTRUCTURE
     1 TNO         1 TEMP              0 ****  ****    0 ROOT
