@<TRIPOS>MOLECULE
TNO
   26    27     1     0     0
SMALL
abcg2


@<TRIPOS>ATOM
      1 C01        -23.0910    18.4730   -14.3060 c3         1 TNO       0.141900
      2 C03        -23.2690    17.2650   -12.2790 ca         1 TNO       0.104100
      3 C04        -23.4570    17.3190   -10.8810 ca         1 TNO       0.142100
      4 C06        -23.4540    16.1430   -10.1480 ca         1 TNO      -0.194000
      5 C07        -23.2710    14.9230   -10.7760 ca         1 TNO      -0.064000
      6 C08        -23.0860    14.8470   -12.1560 ca         1 TNO      -0.093800
      7 C09        -23.0880    16.0440   -12.8960 ca         1 TNO      -0.131000
      8 C10        -22.9030    13.5310   -12.7230 ce         1 TNO      -0.013200
      9 C11        -22.7240    13.1130   -13.9880 cd         1 TNO      -0.135600
     10 C13        -22.4310    12.5890   -16.4560 c          1 TNO       0.599600
     11 C16        -22.5640    11.6740   -14.2830 c          1 TNO       0.586200
     12 N15        -22.4170    11.4920   -15.6410 ns         1 TNO      -0.481500
     13 O02        -23.2840    18.4530   -12.9060 os         1 TNO      -0.320100
     14 O05        -23.6290    18.5310   -10.3410 oh         1 TNO      -0.504100
     15 O14        -22.3160    12.5980   -17.6490 o          1 TNO      -0.466000
     16 O17        -22.5610    10.7730   -13.4790 o          1 TNO      -0.494000
     17 S12        -22.6510    14.0510   -15.4700 ss         1 TNO      -0.196200
     18 H1         -23.1310    19.5170   -14.6080 h1         1 TNO       0.044700
     19 H2         -22.1190    18.0610   -14.5890 h1         1 TNO       0.044700
     20 H3         -23.8750    17.9230   -14.8340 h1         1 TNO       0.044700
     21 H4         -23.5990    16.1810    -9.0740 ha         1 TNO       0.121000
     22 H5         -23.2730    14.0170   -10.1820 ha         1 TNO       0.120000
     23 H6         -22.9450    16.0230   -13.9660 ha         1 TNO       0.130000
     24 H7         -22.9130    12.7280   -11.9930 ha         1 TNO       0.199000
     25 H9         -22.2970    10.5670   -16.0370 hn         1 TNO       0.351500
     26 H10        -23.7610    18.4600    -9.3880 ho         1 TNO       0.466000
@<TRIPOS>BOND
     1     1    13 1   
     2     1    18 1   
     3     1    19 1   
     4     1    20 1   
     5     2     3 ar  
     6     2     7 ar  
     7     2    13 1   
     8     3     4 ar  
     9     3    14 1   
    10     4     5 ar  
    11     4    21 1   
    12     5     6 ar  
    13     5    22 1   
    14     6     7 ar  
    15     6     8 1   
    16     7    23 1   
    17     8     9 2   
    18     8    24 1   
    19     9    11 1   
    20     9    17 1   
    21    10    12 1   
    22    10    15 2   
    23    10    17 1   
    24    11    12 1   
    25    11    16 2   
    26    12    25 1   
    27    14    26 1   
@<TRIPOS>SUBSTRUCTURE
     1 TNO         1 TEMP              0 ****  ****    0 ROOT
