@<TRIPOS>MOLECULE
TNQ
   34    35     1     0     0
SMALL
bcc


@<TRIPOS>ATOM
      1 N           21.5710  -162.4800   249.8000 n8         1 TNQ      -0.869800
      2 CA          22.5800  -163.3900   250.3190 c3         1 TNQ       0.018500
      3 C           23.1380  -163.0430   251.7290 c          1 TNQ       0.900600
      4 O           23.9860  -163.8380   252.1880 o          1 TNQ      -0.849800
      5 CB          23.7310  -163.5360   249.3130 c3         1 TNQ       0.006800
      6 CG          23.3520  -164.1340   247.9960 cc         1 TNQ      -0.064400
      7 CD1         23.3910  -165.4610   247.6810 cd         1 TNQ      -0.175100
      8 CD2         22.8920  -163.4600   246.8120 ca         1 TNQ      -0.132800
      9 NE1         22.9750  -165.6570   246.3850 na         1 TNQ      -0.198400
     10 CE2         22.6740  -164.4490   245.8280 ca         1 TNQ      -0.030200
     11 CE3         22.6590  -162.1270   246.4680 ca         1 TNQ      -0.033000
     12 CZ2         22.2230  -164.1470   244.5460 ca         1 TNQ      -0.063900
     13 CZ3         22.2240  -161.8160   245.1950 ca         1 TNQ      -0.233000
     14 CH2         21.9890  -162.8100   244.2150 ca         1 TNQ       0.209600
     15 C1          20.1420  -161.3240   241.3100 c          1 TNQ       0.924600
     16 C2          20.9170  -161.2440   242.6450 c3         1 TNQ       0.047800
     17 N1          21.5760  -162.4870   242.9420 nu         1 TNQ      -0.720600
     18 O2          20.0270  -162.4500   240.7880 o          1 TNQ      -0.841800
     19 O3          19.6850  -160.2440   240.8940 o          1 TNQ      -0.841800
     20 O7          22.0420  -165.1180   243.5940 oh         1 TNQ      -0.513100
     21 H           20.8670  -162.3420   250.5150 hn         1 TNQ       0.319800
     22 H2          21.9940  -161.5650   249.6890 hn         1 TNQ       0.319800
     23 H4          22.1130  -164.3790   250.4100 h1         1 TNQ       0.039700
     24 H6          24.5000  -164.1550   249.7750 hc         1 TNQ       0.042200
     25 H7          24.1860  -162.5510   249.1550 hc         1 TNQ       0.042200
     26 H8          23.6960  -166.3000   248.2880 h4         1 TNQ       0.144000
     27 H9          22.9640  -166.5450   245.9130 hn         1 TNQ       0.275700
     28 H10         22.8170  -161.3340   247.1890 ha         1 TNQ       0.127000
     29 H11         22.0530  -160.7780   244.9380 ha         1 TNQ       0.127000
     30 H12         21.6320  -160.4170   242.5820 h1         1 TNQ       0.021700
     31 H13         20.1980  -160.9590   243.4300 h1         1 TNQ       0.021700
     32 H14         21.1990  -163.2460   242.3940 hn         1 TNQ       0.445800
     33 H16         21.4060  -165.7720   243.9060 ho         1 TNQ       0.382000
     34 OXT         22.6910  -162.0260   252.2940 o          1 TNQ      -0.849800
@<TRIPOS>BOND
     1     1     2 1   
     2     1    21 1   
     3     1    22 1   
     4     2     3 1   
     5     2     5 1   
     6     2    23 1   
     7     3     4 1   
     8     3    34 1   
     9     5     6 1   
    10     5    24 1   
    11     5    25 1   
    12     6     7 2   
    13     6     8 1   
    14     7     9 1   
    15     7    26 1   
    16     8    10 ar  
    17     8    11 ar  
    18     9    10 1   
    19     9    27 1   
    20    10    12 ar  
    21    11    13 ar  
    22    11    28 1   
    23    12    14 ar  
    24    12    20 1   
    25    13    14 ar  
    26    13    29 1   
    27    14    17 1   
    28    15    16 1   
    29    15    18 1   
    30    15    19 1   
    31    16    17 1   
    32    16    30 1   
    33    16    31 1   
    34    17    32 1   
    35    20    33 1   
@<TRIPOS>SUBSTRUCTURE
     1 TNQ         1 TEMP              0 ****  ****    0 ROOT
