@<TRIPOS>MOLECULE
TNQ
   34    35     1     0     0
SMALL
No Charge or Current Charge


@<TRIPOS>ATOM
      1 N           21.5330  -162.4430   249.8850 n8         1 TNQ      -0.869800
      2 CA          22.6400  -163.3720   250.3350 c3         1 TNQ       0.018500
      3 C           23.2790  -163.0730   251.7580 c          1 TNQ       0.900600
      4 O           23.2210  -163.9400   252.6240 o          1 TNQ      -0.849800
      5 CB          23.7670  -163.4800   249.2710 c3         1 TNQ       0.006800
      6 CG          23.3520  -164.1500   247.9810 cc         1 TNQ      -0.064400
      7 CD1         23.4100  -165.5090   247.6920 cd         1 TNQ      -0.175100
      8 CD2         22.8450  -163.5220   246.7910 ca         1 TNQ      -0.132800
      9 NE1         22.9520  -165.7410   246.3750 na         1 TNQ      -0.198400
     10 CE2         22.6200  -164.4980   245.8580 ca         1 TNQ      -0.030200
     11 CE3         22.5990  -162.1680   246.5240 ca         1 TNQ      -0.033000
     12 CZ2         22.1260  -164.1840   244.5770 ca         1 TNQ      -0.063900
     13 CZ3         22.1030  -161.8210   245.2500 ca         1 TNQ      -0.233000
     14 CH2         21.8640  -162.8190   244.2770 ca         1 TNQ       0.209600
     15 C1          20.2230  -161.1560   241.0920 c          1 TNQ       0.924600
     16 C2          20.7630  -161.1860   242.5770 c3         1 TNQ       0.047800
     17 N1          21.3740  -162.4820   243.0120 nu         1 TNQ      -0.720600
     18 O2          20.0010  -162.2180   240.5130 o          1 TNQ      -0.841800
     19 O3          20.0700  -160.0670   240.5440 o          1 TNQ      -0.841800
     20 O7          21.9030  -165.1720   243.6440 oh         1 TNQ      -0.513100
     21 H           20.7790  -162.4560   250.5790 hn         1 TNQ       0.319800
     22 H2          21.8830  -161.4800   249.9150 hn         1 TNQ       0.319800
     23 H4          22.1890  -164.3700   250.4160 h1         1 TNQ       0.039700
     24 H6          24.5960  -164.0530   249.7030 hc         1 TNQ       0.042200
     25 H7          24.1710  -162.4820   249.0640 hc         1 TNQ       0.042200
     26 H8          23.7440  -166.3230   248.3270 h4         1 TNQ       0.144000
     27 H9          22.8880  -166.6380   245.9090 hn         1 TNQ       0.275700
     28 H10         22.7850  -161.4050   247.2770 ha         1 TNQ       0.127000
     29 H11         21.9090  -160.7770   245.0260 ha         1 TNQ       0.127000
     30 H12         21.5040  -160.3830   242.6800 h1         1 TNQ       0.021700
     31 H13         19.9170  -160.9460   243.2350 h1         1 TNQ       0.021700
     32 H14         21.2310  -163.2820   242.3910 hn         1 TNQ       0.445800
     33 H16         22.1390  -166.0380   244.0340 ho         1 TNQ       0.382000
     34 OXT         23.7100  -161.9470   251.9900 o          1 TNQ      -0.849800
@<TRIPOS>BOND
     1     1     2 1   
     2     1    21 1   
     3     1    22 1   
     4     2     3 1   
     5     2     5 1   
     6     2    23 1   
     7     3     4 1   
     8     3    34 1   
     9     5     6 1   
    10     5    24 1   
    11     5    25 1   
    12     6     7 2   
    13     6     8 1   
    14     7     9 1   
    15     7    26 1   
    16     8    10 ar  
    17     8    11 ar  
    18     9    10 1   
    19     9    27 1   
    20    10    12 ar  
    21    11    13 ar  
    22    11    28 1   
    23    12    14 ar  
    24    12    20 1   
    25    13    14 ar  
    26    13    29 1   
    27    14    17 1   
    28    15    16 1   
    29    15    18 1   
    30    15    19 1   
    31    16    17 1   
    32    16    30 1   
    33    16    31 1   
    34    17    32 1   
    35    20    33 1   
@<TRIPOS>SUBSTRUCTURE
     1 TNQ         1 TEMP              0 ****  ****    0 ROOT
