@<TRIPOS>MOLECULE
TNS
   47    48     1     0     0
SMALL
No Charge or Current Charge


@<TRIPOS>ATOM
      1 O22         -6.6290     8.7660    -4.3380 o          1 TNS      -0.740000
      2 C20         -5.5560     8.6950    -4.9180 c          1 TNS       0.717000
      3 O21         -5.4030     8.9850    -6.0950 o          1 TNS      -0.740000
      4 C19         -4.3430     8.1530    -4.1400 c3         1 TNS      -0.206400
      5 C18         -4.2650     6.6130    -4.2780 c3         1 TNS      -0.052400
      6 C17         -3.0690     5.9950    -3.5190 c3         1 TNS      -0.109400
      7 C16         -2.9970     4.4580    -3.6590 c3         1 TNS       0.216800
      8 N15         -1.8380     3.8530    -2.9630 nh         1 TNS      -0.810400
      9 C23         -1.9870     3.6020    -1.5100 c3         1 TNS       0.212100
     10 C14         -0.6910     3.4100    -3.6730 ca         1 TNS       0.377000
     11 C13         -0.2700     4.0650    -4.8470 ca         1 TNS      -0.208500
     12 C12          0.8650     3.6310    -5.5520 ca         1 TNS      -0.032000
     13 C9           0.0580     2.3080    -3.2190 ca         1 TNS      -0.208500
     14 C10          1.1940     1.8690    -3.9190 ca         1 TNS      -0.032000
     15 C11          1.6090     2.5240    -5.0940 ca         1 TNS      -0.167800
     16 C8           2.8220     2.0320    -5.8140 ce         1 TNS      -0.059200
     17 C7           3.3190     2.4210    -7.0250 cf         1 TNS      -0.239200
     18 C3           4.5140     1.9450    -7.7510 ca         1 TNS       0.036200
     19 C2           5.3620     0.9500    -7.2250 ca         1 TNS      -0.134500
     20 C4           4.8220     2.5000    -9.0070 ca         1 TNS      -0.134500
     21 C5           5.9500     2.0750    -9.7290 ca         1 TNS      -0.038000
     22 C6           6.8000     1.0760    -9.2010 ca         1 TNS      -0.203200
     23 C1           6.4940     0.5180    -7.9390 ca         1 TNS      -0.038000
     24 N24          8.0050     0.6180    -9.9650 no         1 TNS       0.698200
     25 O26          8.2330     1.1370   -11.0660 o          1 TNS      -0.413000
     26 O25          8.7190    -0.2590    -9.4620 o          1 TNS      -0.413000
     27 H191        -4.4550     8.3540    -3.0670 hc         1 TNS       0.017200
     28 H192        -3.4100     8.5410    -4.5670 hc         1 TNS       0.017200
     29 H181        -4.1910     6.3490    -5.3400 hc         1 TNS       0.039700
     30 H182        -5.1960     6.1690    -3.9030 hc         1 TNS       0.039700
     31 H171        -3.1430     6.2570    -2.4570 hc         1 TNS       0.036700
     32 H172        -2.1380     6.4370    -3.8920 hc         1 TNS       0.036700
     33 H161        -2.9730     4.1970    -4.7260 h1         1 TNS       0.050700
     34 H162        -3.9270     4.0260    -3.2630 h1         1 TNS       0.050700
     35 H231        -2.7170     4.2910    -1.0660 h1         1 TNS       0.035367
     36 H232        -1.0300     3.7530    -0.9930 h1         1 TNS       0.035367
     37 H233        -2.3300     2.5740    -1.3300 h1         1 TNS       0.035367
     38 H13         -0.8150     4.9260    -5.2180 ha         1 TNS       0.120000
     39 H12          1.1600     4.1700    -6.4470 ha         1 TNS       0.103000
     40 H9          -0.2400     1.7730    -2.3230 ha         1 TNS       0.120000
     41 H10          1.7500     1.0120    -3.5450 ha         1 TNS       0.103000
     42 H8           3.3560     1.2530    -5.2710 ha         1 TNS       0.161000
     43 H7           2.7700     3.1920    -7.5630 ha         1 TNS       0.183000
     44 H2           5.1570     0.5000    -6.2580 ha         1 TNS       0.125500
     45 H4           4.1820     3.2700    -9.4330 ha         1 TNS       0.125500
     46 H5           6.1560     2.5270   -10.6980 ha         1 TNS       0.144500
     47 H1           7.1270    -0.2530    -7.5020 ha         1 TNS       0.144500
@<TRIPOS>BOND
     1     1     2 1   
     2     2     3 1   
     3     2     4 1   
     4     4     5 1   
     5     4    27 1   
     6     4    28 1   
     7     5     6 1   
     8     5    29 1   
     9     5    30 1   
    10     6     7 1   
    11     6    31 1   
    12     6    32 1   
    13     7     8 1   
    14     7    33 1   
    15     7    34 1   
    16     8     9 1   
    17     8    10 1   
    18     9    35 1   
    19     9    36 1   
    20     9    37 1   
    21    10    11 ar  
    22    10    13 ar  
    23    11    12 ar  
    24    11    38 1   
    25    12    15 ar  
    26    12    39 1   
    27    13    14 ar  
    28    13    40 1   
    29    14    15 ar  
    30    14    41 1   
    31    15    16 1   
    32    16    17 2   
    33    16    42 1   
    34    17    18 1   
    35    17    43 1   
    36    18    19 ar  
    37    18    20 ar  
    38    19    23 ar  
    39    19    44 1   
    40    20    21 ar  
    41    20    45 1   
    42    21    22 ar  
    43    21    46 1   
    44    22    23 ar  
    45    22    24 1   
    46    23    47 1   
    47    24    25 1   
    48    24    26 1   
@<TRIPOS>SUBSTRUCTURE
     1 TNS         1 TEMP              0 ****  ****    0 ROOT
