@<TRIPOS>MOLECULE
TNS
   47    48     1     0     0
SMALL
abcg2


@<TRIPOS>ATOM
      1 O22         -6.0220     8.2900    -5.1930 o          1 TNS      -0.740000
      2 C20         -4.9580     8.8930    -4.9510 c          1 TNS       0.717000
      3 O21         -4.7530    10.1170    -5.0970 o          1 TNS      -0.740000
      4 C19         -3.7720     8.0720    -4.4130 c3         1 TNS      -0.206400
      5 C18         -4.0140     6.5800    -4.2650 c3         1 TNS      -0.052400
      6 C17         -2.8120     5.8370    -3.6920 c3         1 TNS      -0.109400
      7 C16         -3.0680     4.3350    -3.6050 c3         1 TNS       0.216800
      8 N15         -1.9940     3.5780    -2.9910 nh         1 TNS      -0.810400
      9 C23         -2.0280     3.4090    -1.5560 c3         1 TNS       0.212100
     10 C14         -0.8770     3.2280    -3.6840 ca         1 TNS       0.377000
     11 C13         -0.7310     3.5000    -5.0650 ca         1 TNS      -0.208500
     12 C12          0.4000     3.1270    -5.7530 ca         1 TNS      -0.032000
     13 C9           0.1930     2.5580    -3.0550 ca         1 TNS      -0.208500
     14 C10          1.3150     2.1850    -3.7650 ca         1 TNS      -0.032000
     15 C11          1.4640     2.4610    -5.1280 ca         1 TNS      -0.167800
     16 C8           2.6840     2.0700    -5.8050 ce         1 TNS      -0.059200
     17 C7           3.0400     2.3750    -7.0670 cf         1 TNS      -0.239200
     18 C3           4.2780     1.9810    -7.7150 ca         1 TNS       0.036200
     19 C2           5.2130     1.1050    -7.1410 ca         1 TNS      -0.134500
     20 C4           4.5660     2.5010    -8.9850 ca         1 TNS      -0.134500
     21 C5           5.7300     2.1810    -9.6530 ca         1 TNS      -0.038000
     22 C6           6.6370     1.3180    -9.0500 ca         1 TNS      -0.203200
     23 C1           6.3800     0.7750    -7.7940 ca         1 TNS      -0.038000
     24 N24          7.8610     0.9780    -9.7370 no         1 TNS       0.698200
     25 O26          8.0610     1.4660   -10.8280 o          1 TNS      -0.413000
     26 O25          8.6330     0.2210    -9.1910 o          1 TNS      -0.413000
     27 H191        -3.4760     8.4970    -3.4460 hc         1 TNS       0.017200
     28 H192        -2.9120     8.2430    -5.0710 hc         1 TNS       0.017200
     29 H181        -4.2740     6.1510    -5.2370 hc         1 TNS       0.039700
     30 H182        -4.8800     6.4090    -3.6190 hc         1 TNS       0.039700
     31 H171        -2.5800     6.2200    -2.6930 hc         1 TNS       0.036700
     32 H172        -1.9270     6.0280    -4.3080 hc         1 TNS       0.036700
     33 H161        -3.2850     3.9310    -4.5960 h1         1 TNS       0.050700
     34 H162        -3.9700     4.1580    -3.0160 h1         1 TNS       0.050700
     35 H231        -2.9850     3.7600    -1.1780 h1         1 TNS       0.035367
     36 H232        -1.2410     3.9760    -1.0490 h1         1 TNS       0.035367
     37 H233        -1.9270     2.3610    -1.2670 h1         1 TNS       0.035367
     38 H13         -1.5070     4.0160    -5.6120 ha         1 TNS       0.120000
     39 H12          0.4510     3.3650    -6.8090 ha         1 TNS       0.103000
     40 H9           0.1510     2.3190    -2.0020 ha         1 TNS       0.120000
     41 H10          2.1110     1.6680    -3.2400 ha         1 TNS       0.103000
     42 H8           3.3670     1.4870    -5.1940 ha         1 TNS       0.161000
     43 H7           2.3800     2.9860    -7.6730 ha         1 TNS       0.183000
     44 H2           5.0280     0.6640    -6.1710 ha         1 TNS       0.125500
     45 H4           3.8620     3.1750    -9.4560 ha         1 TNS       0.125500
     46 H5           5.9220     2.6040   -10.6280 ha         1 TNS       0.144500
     47 H1           7.0790     0.0980    -7.3260 ha         1 TNS       0.144500
@<TRIPOS>BOND
     1     1     2 1   
     2     2     3 1   
     3     2     4 1   
     4     4     5 1   
     5     4    27 1   
     6     4    28 1   
     7     5     6 1   
     8     5    29 1   
     9     5    30 1   
    10     6     7 1   
    11     6    31 1   
    12     6    32 1   
    13     7     8 1   
    14     7    33 1   
    15     7    34 1   
    16     8     9 1   
    17     8    10 1   
    18     9    35 1   
    19     9    36 1   
    20     9    37 1   
    21    10    11 ar  
    22    10    13 ar  
    23    11    12 ar  
    24    11    38 1   
    25    12    15 ar  
    26    12    39 1   
    27    13    14 ar  
    28    13    40 1   
    29    14    15 ar  
    30    14    41 1   
    31    15    16 1   
    32    16    17 2   
    33    16    42 1   
    34    17    18 1   
    35    17    43 1   
    36    18    19 ar  
    37    18    20 ar  
    38    19    23 ar  
    39    19    44 1   
    40    20    21 ar  
    41    20    45 1   
    42    21    22 ar  
    43    21    46 1   
    44    22    23 ar  
    45    22    24 1   
    46    23    47 1   
    47    24    25 1   
    48    24    26 1   
@<TRIPOS>SUBSTRUCTURE
     1 TNS         1 TEMP              0 ****  ****    0 ROOT
