@<TRIPOS>MOLECULE
TNT
   43    44     1     0     0
SMALL
No Charge or Current Charge


@<TRIPOS>ATOM
      1 C1          -0.5660     0.0400     3.7150 ca         1 TNT       0.159600
      2 C2          -1.5100     0.1850     4.7410 ca         1 TNT      -0.181250
      3 C3          -1.1190     0.1270     6.0890 ca         1 TNT      -0.044000
      4 C4           0.2390    -0.0620     6.4350 ca         1 TNT      -0.209900
      5 C5           1.1840    -0.2280     5.3950 ca         1 TNT      -0.044000
      6 C6           0.7880    -0.1720     4.0470 ca         1 TNT      -0.181250
      7 C7           0.6560    -0.1650     7.8650 ce         1 TNT       0.664800
      8 N1          -0.1330    -0.4910     8.8030 n2         1 TNT      -0.837600
      9 N2           1.8850     0.2670     8.1950 nv         1 TNT      -1.052200
     10 C8          -0.5690     0.0320    -3.6950 ca         1 TNT       0.159600
     11 C9          -1.5140     0.1740    -4.7190 ca         1 TNT      -0.181250
     12 C10         -1.1220     0.1140    -6.0680 ca         1 TNT      -0.044000
     13 C11          0.2350    -0.0740    -6.4160 ca         1 TNT      -0.209900
     14 C12          1.1810    -0.2410    -5.3750 ca         1 TNT      -0.044000
     15 C13          0.7840    -0.1810    -4.0270 ca         1 TNT      -0.181250
     16 C14          0.6380    -0.1710    -7.8530 ce         1 TNT       0.664800
     17 N3          -0.1820    -0.4150    -8.7900 n2         1 TNT      -0.837600
     18 N4           1.9090     0.1430    -8.1720 nv         1 TNT      -1.052200
     19 CA          -0.1260    -0.0330     1.2900 c3         1 TNT       0.167100
     20 O1          -1.0140     0.1050     2.4120 os         1 TNT      -0.343100
     21 CB          -0.9710     0.0950     0.0100 c3         1 TNT      -0.089400
     22 C15         -0.1270    -0.0360    -1.2690 c3         1 TNT       0.167100
     23 O2          -1.0150     0.0990    -2.3910 os         1 TNT      -0.343100
     24 H2          -2.5560     0.3430     4.4880 ha         1 TNT       0.124250
     25 H3          -1.8760     0.2490     6.8610 ha         1 TNT       0.124750
     26 H5           2.2320    -0.4130     5.6260 ha         1 TNT       0.124750
     27 H6           1.5440    -0.3000     3.2780 ha         1 TNT       0.124250
     28 HN1         -0.9990    -0.8430     8.3760 hn         1 TNT       0.378900
     29 HN2          1.9870     0.4830     9.1790 hn         1 TNT       0.461750
     30 HN3          2.3030     0.9270     7.5500 hn         1 TNT       0.461750
     31 H1          -2.5600     0.3300    -4.4680 ha         1 TNT       0.124250
     32 H4          -1.8780     0.2250    -6.8420 ha         1 TNT       0.124750
     33 H7           2.2280    -0.4300    -5.6010 ha         1 TNT       0.124750
     34 H8           1.5400    -0.3090    -3.2580 ha         1 TNT       0.124250
     35 HN'1         0.3590    -0.6340    -9.6340 hn         1 TNT       0.378900
     36 HN'2         2.0510     0.4970    -9.1100 hn         1 TNT       0.461750
     37 HN'3         2.4260     0.6290    -7.4490 hn         1 TNT       0.461750
     38 HA1          0.6420     0.7520     1.3030 h1         1 TNT       0.036200
     39 HA2          0.3700    -1.0130     1.3050 h1         1 TNT       0.036200
     40 HB1         -1.7460    -0.6800     0.0120 hc         1 TNT       0.073700
     41 HB2         -1.4770     1.0680     0.0100 hc         1 TNT       0.073700
     42 HA'1         0.6410     0.7490    -1.2850 h1         1 TNT       0.036200
     43 HA'2         0.3690    -1.0160    -1.2830 h1         1 TNT       0.036200
@<TRIPOS>BOND
     1     1     2 ar  
     2     1     6 ar  
     3     1    20 1   
     4     2     3 ar  
     5     2    24 1   
     6     3     4 ar  
     7     3    25 1   
     8     4     5 ar  
     9     4     7 1   
    10     5     6 ar  
    11     5    26 1   
    12     6    27 1   
    13     7     8 2   
    14     7     9 1   
    15     8    28 1   
    16     9    29 1   
    17     9    30 1   
    18    10    11 ar  
    19    10    15 ar  
    20    10    23 1   
    21    11    12 ar  
    22    11    31 1   
    23    12    13 ar  
    24    12    32 1   
    25    13    14 ar  
    26    13    16 1   
    27    14    15 ar  
    28    14    33 1   
    29    15    34 1   
    30    16    17 2   
    31    16    18 1   
    32    17    35 1   
    33    18    36 1   
    34    18    37 1   
    35    19    20 1   
    36    19    21 1   
    37    19    38 1   
    38    19    39 1   
    39    21    22 1   
    40    21    40 1   
    41    21    41 1   
    42    22    23 1   
    43    22    42 1   
    44    22    43 1   
@<TRIPOS>SUBSTRUCTURE
     1 TNT         1 TEMP              0 ****  ****    0 ROOT
