@<TRIPOS>MOLECULE
TNT
   43    44     1     0     0
SMALL
bcc


@<TRIPOS>ATOM
      1 C1          -0.6210     0.0370     3.6080 ca         1 TNT       0.159600
      2 C2          -1.5190     0.2110     4.6650 ca         1 TNT      -0.199250
      3 C3          -1.0750     0.1570     5.9700 ca         1 TNT      -0.062000
      4 C4           0.2720    -0.0610     6.2670 ca         1 TNT      -0.209900
      5 C5           1.1560    -0.2300     5.2070 ca         1 TNT      -0.062000
      6 C6           0.7250    -0.1900     3.8880 ca         1 TNT      -0.199250
      7 C7           0.7280    -0.1210     7.6810 ce         1 TNT       0.664800
      8 N1           0.0340    -0.5740     8.6550 n2         1 TNT      -0.837600
      9 N2           2.0050     0.3130     7.8930 nv         1 TNT      -0.941800
     10 C8          -0.6080     0.0150    -3.5940 ca         1 TNT       0.159600
     11 C9          -1.5080     0.1360    -4.6570 ca         1 TNT      -0.199250
     12 C10         -1.0580     0.0790    -5.9600 ca         1 TNT      -0.062000
     13 C11          0.2980    -0.0860    -6.2500 ca         1 TNT      -0.209900
     14 C12          1.1830    -0.2110    -5.1850 ca         1 TNT      -0.062000
     15 C13          0.7450    -0.1660    -3.8670 ca         1 TNT      -0.199250
     16 C14          0.7460    -0.1410    -7.6650 ce         1 TNT       0.664800
     17 N3          -0.0920    -0.4930    -8.5650 n2         1 TNT      -0.837600
     18 N4           2.0660     0.1510    -7.8720 nv         1 TNT      -0.941800
     19 CA          -0.2810    -0.0430     1.2530 c3         1 TNT       0.143900
     20 O1          -1.1400     0.1070     2.3720 os         1 TNT      -0.319900
     21 CB          -1.1280     0.1100     0.0060 c3         1 TNT      -0.089400
     22 C15         -0.2760    -0.0410    -1.2380 c3         1 TNT       0.143900
     23 O2          -1.1330     0.0860    -2.3600 os         1 TNT      -0.319900
     24 H2          -2.5640     0.3940     4.4520 ha         1 TNT       0.142250
     25 H3          -1.7920     0.3100     6.7680 ha         1 TNT       0.142750
     26 H5           2.2060    -0.4150     5.3970 ha         1 TNT       0.142750
     27 H6           1.4500    -0.3390     3.1010 ha         1 TNT       0.142250
     28 HN1         -0.8420    -0.9610     8.3240 hn         1 TNT       0.378900
     29 HN2          2.2860     0.3990     8.8560 hn         1 TNT       0.406550
     30 HN3          2.3640     1.0390     7.2950 hn         1 TNT       0.406550
     31 H1          -2.5620     0.2760    -4.4500 ha         1 TNT       0.142250
     32 H4          -1.7670     0.1720    -6.7710 ha         1 TNT       0.142750
     33 H7           2.2400    -0.3660    -5.3610 ha         1 TNT       0.142750
     34 H8           1.4740    -0.2770    -3.0760 ha         1 TNT       0.142250
     35 HN'1         0.3270    -0.4540    -9.4900 hn         1 TNT       0.378900
     36 HN'2         2.3640     0.2680    -8.8280 hn         1 TNT       0.406550
     37 HN'3         2.5140     0.7930    -7.2380 hn         1 TNT       0.406550
     38 HA1          0.5120     0.7140     1.2760 h1         1 TNT       0.036200
     39 HA2          0.2000    -1.0270     1.2710 h1         1 TNT       0.036200
     40 HB1         -1.9160    -0.6470     0.0040 hc         1 TNT       0.073700
     41 HB2         -1.6070     1.0930     0.0050 hc         1 TNT       0.073700
     42 HA'1         0.5060     0.7260    -1.2630 h1         1 TNT       0.036200
     43 HA'2         0.2200    -1.0180    -1.2480 h1         1 TNT       0.036200
@<TRIPOS>BOND
     1     1     2 ar  
     2     1     6 ar  
     3     1    20 1   
     4     2     3 ar  
     5     2    24 1   
     6     3     4 ar  
     7     3    25 1   
     8     4     5 ar  
     9     4     7 1   
    10     5     6 ar  
    11     5    26 1   
    12     6    27 1   
    13     7     8 2   
    14     7     9 1   
    15     8    28 1   
    16     9    29 1   
    17     9    30 1   
    18    10    11 ar  
    19    10    15 ar  
    20    10    23 1   
    21    11    12 ar  
    22    11    31 1   
    23    12    13 ar  
    24    12    32 1   
    25    13    14 ar  
    26    13    16 1   
    27    14    15 ar  
    28    14    33 1   
    29    15    34 1   
    30    16    17 2   
    31    16    18 1   
    32    17    35 1   
    33    18    36 1   
    34    18    37 1   
    35    19    20 1   
    36    19    21 1   
    37    19    38 1   
    38    19    39 1   
    39    21    22 1   
    40    21    40 1   
    41    21    41 1   
    42    22    23 1   
    43    22    42 1   
    44    22    43 1   
@<TRIPOS>SUBSTRUCTURE
     1 TNT         1 TEMP              0 ****  ****    0 ROOT
