@<TRIPOS>MOLECULE
TNU
   29    30     1     0     0
SMALL
abcg2


@<TRIPOS>ATOM
      1 N1         -11.7700    -2.8960   -18.4650 nc         1 TNU      -0.789000
      2 C4         -14.0050    -5.6330   -19.5550 c6         1 TNU       0.204500
      3 C5         -15.4040    -5.5120   -18.9590 c3         1 TNU      -0.105100
      4 C6         -12.7080    -3.6140   -19.0590 cd         1 TNU       0.730300
      5 C7         -11.7240    -1.6460   -19.0120 cc         1 TNU       0.629300
      6 C8         -10.7170    -0.6630   -18.5130 c3         1 TNU      -0.114400
      7 N          -13.0180    -4.8790   -18.7700 nh         1 TNU      -0.761300
      8 O          -12.1020    -7.1260   -19.7500 os         1 TNU      -0.451000
      9 C1         -13.5260    -7.0980   -19.6530 c6         1 TNU       0.158300
     10 C2         -11.4500    -6.7260   -18.5420 c6         1 TNU       0.133600
     11 C3         -12.2640    -5.6590   -17.7990 c6         1 TNU       0.189800
     12 N2         -12.5560    -1.3270   -19.9770 nd         1 TNU      -0.529100
     13 S          -13.5210    -2.6670   -20.2960 ss         1 TNU      -0.051300
     14 H1         -13.9930    -5.2190   -20.5680 h1         1 TNU       0.071700
     15 H2         -15.7190    -4.4690   -18.9250 hc         1 TNU       0.049033
     16 H3         -16.1260    -6.0660   -19.5600 hc         1 TNU       0.049033
     17 H4         -15.4200    -5.9130   -17.9440 hc         1 TNU       0.049033
     18 H5         -10.8330     0.2940   -19.0180 hc         1 TNU       0.059033
     19 H6         -10.8290    -0.5210   -17.4370 hc         1 TNU       0.059033
     20 H7          -9.7070    -1.0400   -18.6910 hc         1 TNU       0.059033
     21 H11        -13.8370    -7.6360   -18.7490 h1         1 TNU       0.040700
     22 H12        -11.2980    -7.5920   -17.8880 h1         1 TNU       0.056700
     23 H13        -10.4790    -6.3330   -18.8410 h1         1 TNU       0.056700
     24 H14        -12.9700    -6.1200   -17.1080 h1         1 TNU       0.072700
     25 H15        -11.6140    -5.0010   -17.2310 h1         1 TNU       0.072700
     26 C          -14.0850    -7.8010   -20.8730 c3         1 TNU      -0.089100
     27 H8         -15.1750    -7.7720   -20.8690 hc         1 TNU       0.050033
     28 H9         -13.7280    -7.3140   -21.7830 hc         1 TNU       0.050033
     29 H10        -13.7680    -8.8440   -20.8840 hc         1 TNU       0.050033
@<TRIPOS>BOND
     1     1     4 2   
     2     1     5 1   
     3     2     3 1   
     4     2     7 1   
     5     2     9 1   
     6     2    14 1   
     7     3    15 1   
     8     3    16 1   
     9     3    17 1   
    10     4     7 1   
    11     4    13 1   
    12     5     6 1   
    13     5    12 2   
    14     6    18 1   
    15     6    19 1   
    16     6    20 1   
    17     7    11 1   
    18     8     9 1   
    19     8    10 1   
    20     9    21 1   
    21     9    26 1   
    22    10    11 1   
    23    10    22 1   
    24    10    23 1   
    25    11    24 1   
    26    11    25 1   
    27    12    13 1   
    28    26    27 1   
    29    26    28 1   
    30    26    29 1   
@<TRIPOS>SUBSTRUCTURE
     1 TNU         1 TEMP              0 ****  ****    0 ROOT
