@<TRIPOS>MOLECULE
TNU
   29    30     1     0     0
SMALL
No Charge or Current Charge


@<TRIPOS>ATOM
      1 N1         -11.9260    -2.7770   -18.2750 nc         1 TNU      -0.789000
      2 C4         -13.7690    -5.6860   -19.6850 c6         1 TNU       0.204500
      3 C5         -15.2050    -5.2540   -19.2570 c3         1 TNU      -0.105100
      4 C6         -12.6640    -3.5050   -19.0720 cd         1 TNU       0.730300
      5 C7         -11.9660    -1.5050   -18.7830 cc         1 TNU       0.629300
      6 C8         -11.2100    -0.4460   -18.0390 c3         1 TNU      -0.114400
      7 N          -12.7560    -4.8890   -18.8940 nh         1 TNU      -0.761300
      8 O          -12.2800    -7.6870   -19.4820 os         1 TNU      -0.451000
      9 C1         -13.6480    -7.2520   -19.5480 c6         1 TNU       0.158300
     10 C2         -11.6050    -7.1360   -18.3400 c6         1 TNU       0.133600
     11 C3         -11.4950    -5.5970   -18.4700 c6         1 TNU       0.189800
     12 N2         -12.6310    -1.2090   -19.8960 nd         1 TNU      -0.529100
     13 S          -13.3240    -2.6260   -20.4440 ss         1 TNU      -0.051300
     14 H1         -13.6520    -5.4450   -20.7520 h1         1 TNU       0.071700
     15 H2         -15.3820    -4.1820   -19.3880 hc         1 TNU       0.049033
     16 H3         -15.9710    -5.7720   -19.8450 hc         1 TNU       0.049033
     17 H4         -15.3860    -5.4870   -18.2010 hc         1 TNU       0.049033
     18 H5         -11.3420     0.5380   -18.5010 hc         1 TNU       0.059033
     19 H6         -11.5560    -0.3820   -17.0010 hc         1 TNU       0.059033
     20 H7         -10.1380    -0.6740   -18.0290 hc         1 TNU       0.059033
     21 H11        -14.1470    -7.5710   -18.6210 h1         1 TNU       0.040700
     22 H12        -12.1580    -7.3970   -17.4260 h1         1 TNU       0.056700
     23 H13        -10.6000    -7.5750   -18.2650 h1         1 TNU       0.056700
     24 H14        -11.1490    -5.2050   -17.5020 h1         1 TNU       0.072700
     25 H15        -10.6960    -5.3770   -19.1940 h1         1 TNU       0.072700
     26 C          -14.2980    -8.0230   -20.7270 c3         1 TNU      -0.089100
     27 H8         -15.3760    -7.8390   -20.7830 hc         1 TNU       0.050033
     28 H9         -13.8560    -7.7290   -21.6860 hc         1 TNU       0.050033
     29 H10        -14.1580    -9.1040   -20.6110 hc         1 TNU       0.050033
@<TRIPOS>BOND
     1     1     4 2   
     2     1     5 1   
     3     2     3 1   
     4     2     7 1   
     5     2     9 1   
     6     2    14 1   
     7     3    15 1   
     8     3    16 1   
     9     3    17 1   
    10     4     7 1   
    11     4    13 1   
    12     5     6 1   
    13     5    12 2   
    14     6    18 1   
    15     6    19 1   
    16     6    20 1   
    17     7    11 1   
    18     8     9 1   
    19     8    10 1   
    20     9    21 1   
    21     9    26 1   
    22    10    11 1   
    23    10    22 1   
    24    10    23 1   
    25    11    24 1   
    26    11    25 1   
    27    12    13 1   
    28    26    27 1   
    29    26    28 1   
    30    26    29 1   
@<TRIPOS>SUBSTRUCTURE
     1 TNU         1 TEMP              0 ****  ****    0 ROOT
