@<TRIPOS>MOLECULE
TNW
   38    40     1     0     0
SMALL
abcg2


@<TRIPOS>ATOM
      1 C1          38.0190    40.0440    11.9120 c3         1 TNW       0.209600
      2 C2          36.6390    40.7950    13.8240 cc         1 TNW       0.787800
      3 C3          35.1760    42.0410    15.1470 c          1 TNW       0.727400
      4 C7          35.5240    45.3700    18.8670 ca         1 TNW      -0.103000
      5 C8          35.9290    45.8040    17.6070 ca         1 TNW      -0.070300
      6 C9          36.0870    47.2650    17.3050 c3         1 TNW      -0.047800
      7 C10         36.1630    44.8460    16.6230 ca         1 TNW      -0.097000
      8 C11         37.5230    42.0150    15.7320 ca         1 TNW       0.144600
      9 C12         38.5570    42.3830    16.6000 ca         1 TNW      -0.169000
     10 C13         39.7730    41.7440    16.5010 ca         1 TNW       0.179000
     11 C14         39.9960    40.7200    15.5850 ca         1 TNW      -0.159000
     12 C15         38.9840    40.3940    14.7110 ca         1 TNW      -0.032000
     13 C16         37.7570    41.0660    14.7230 ca         1 TNW      -0.277900
     14 CL          41.0450    42.2010    17.5750 cl         1 TNW      -0.188000
     15 N           36.7940    40.0890    12.6930 nh         1 TNW      -0.736600
     16 C           35.6140    39.6420    11.9770 c3         1 TNW       0.209600
     17 N2          36.2610    42.5390    15.8740 n          1 TNW      -0.245200
     18 O           34.0500    42.4090    15.4320 o          1 TNW      -0.515000
     19 N1          35.4310    41.2080    14.1120 nd         1 TNW      -0.765100
     20 C4          35.9910    43.4990    16.8960 ca         1 TNW       0.036600
     21 C6          35.3550    44.0190    19.1380 ca         1 TNW      -0.103000
     22 C5          35.5900    43.0720    18.1530 ca         1 TNW      -0.094000
     23 H1          38.7200    40.8160    12.2170 h1         1 TNW       0.047867
     24 H2          38.5090    39.0710    11.9660 h1         1 TNW       0.047867
     25 H3          37.7680    40.2360    10.8690 h1         1 TNW       0.047867
     26 H4          35.3420    46.0980    19.6480 ha         1 TNW       0.114000
     27 H5          35.1560    47.6840    16.9180 hc         1 TNW       0.044367
     28 H6          36.3490    47.8310    18.1980 hc         1 TNW       0.044367
     29 H7          36.8570    47.4380    16.5540 hc         1 TNW       0.044367
     30 H8          36.4870    45.1510    15.6340 ha         1 TNW       0.123000
     31 H9          38.4020    43.1410    17.3540 ha         1 TNW       0.150000
     32 H10         40.9370    40.1910    15.5600 ha         1 TNW       0.135000
     33 H11         39.1560    39.5810    14.0220 ha         1 TNW       0.122000
     34 H12         34.8520    39.2890    12.6650 h1         1 TNW       0.047867
     35 H13         35.1840    40.4350    11.3600 h1         1 TNW       0.047867
     36 H14         35.9020    38.8170    11.3270 h1         1 TNW       0.047867
     37 H15         35.0410    43.7020    20.1250 ha         1 TNW       0.118000
     38 H16         35.4690    42.0160    18.3570 ha         1 TNW       0.126000
@<TRIPOS>BOND
     1     1    15 1   
     2     1    23 1   
     3     1    24 1   
     4     1    25 1   
     5     2    13 1   
     6     2    15 1   
     7     2    19 2   
     8     3    17 1   
     9     3    18 2   
    10     3    19 1   
    11     4     5 ar  
    12     4    21 ar  
    13     4    26 1   
    14     5     6 1   
    15     5     7 ar  
    16     6    27 1   
    17     6    28 1   
    18     6    29 1   
    19     7    20 ar  
    20     7    30 1   
    21     8     9 ar  
    22     8    13 ar  
    23     8    17 1   
    24     9    10 ar  
    25     9    31 1   
    26    10    11 ar  
    27    10    14 1   
    28    11    12 ar  
    29    11    32 1   
    30    12    13 ar  
    31    12    33 1   
    32    15    16 1   
    33    16    34 1   
    34    16    35 1   
    35    16    36 1   
    36    17    20 1   
    37    20    22 ar  
    38    21    22 ar  
    39    21    37 1   
    40    22    38 1   
@<TRIPOS>SUBSTRUCTURE
     1 TNW         1 TEMP              0 ****  ****    0 ROOT
