@<TRIPOS>MOLECULE
TNW
   38    40     1     0     0
SMALL
No Charge or Current Charge


@<TRIPOS>ATOM
      1 C1          38.0080    40.2330    11.7140 c3         1 TNW       0.209600
      2 C2          36.7070    40.9450    13.6910 cc         1 TNW       0.787800
      3 C3          35.5160    42.7200    14.6640 c          1 TNW       0.727400
      4 C7          35.6880    45.4750    18.9720 ca         1 TNW      -0.103000
      5 C8          35.6710    45.9690    17.6550 ca         1 TNW      -0.070300
      6 C9          35.3640    47.4350    17.3890 c3         1 TNW      -0.047800
      7 C10         35.9330    45.0950    16.5830 ca         1 TNW      -0.097000
      8 C11         37.6030    41.9500    15.7490 ca         1 TNW       0.144600
      9 C12         38.6240    42.0610    16.7220 ca         1 TNW      -0.169000
     10 C13         39.6820    41.1450    16.7550 ca         1 TNW       0.179000
     11 C14         39.7460    40.1120    15.8160 ca         1 TNW      -0.159000
     12 C15         38.7710    40.0200    14.8130 ca         1 TNW      -0.032000
     13 C16         37.7160    40.9640    14.7500 ca         1 TNW      -0.277900
     14 Cl          40.9300    41.2910    17.9860 cl         1 TNW      -0.188000
     15 N           36.8660    40.0750    12.6400 nh         1 TNW      -0.736600
     16 C           35.7040    39.3340    12.1080 c3         1 TNW       0.209600
     17 N2          36.4710    42.8450    15.6970 n          1 TNW      -0.245200
     18 O           34.5130    43.4130    14.6060 o          1 TNW      -0.515000
     19 N1          35.6900    41.7600    13.6730 nd         1 TNW      -0.765100
     20 C4          36.2310    43.7350    16.8120 ca         1 TNW       0.036600
     21 C6          35.9600    44.1190    19.2120 ca         1 TNW      -0.103000
     22 C5          36.2240    43.2520    18.1390 ca         1 TNW      -0.094000
     23 H1          38.7270    40.9720    12.0940 h1         1 TNW       0.047867
     24 H2          38.5310    39.2770    11.5850 h1         1 TNW       0.047867
     25 H3          37.6600    40.5730    10.7300 h1         1 TNW       0.047867
     26 H4          35.4820    46.1400    19.8080 ha         1 TNW       0.114000
     27 H5          34.2950    47.5800    17.1940 hc         1 TNW       0.044367
     28 H6          35.6370    48.0640    18.2440 hc         1 TNW       0.044367
     29 H7          35.9170    47.8070    16.5180 hc         1 TNW       0.044367
     30 H8          35.9210    45.4800    15.5660 ha         1 TNW       0.123000
     31 H9          38.6260    42.8610    17.4530 ha         1 TNW       0.150000
     32 H10         40.5600    39.3930    15.8540 ha         1 TNW       0.135000
     33 H11         38.8490    39.2110    14.0910 ha         1 TNW       0.122000
     34 H12         35.0380    39.0220    12.9230 h1         1 TNW       0.047867
     35 H13         35.1320    39.9630    11.4130 h1         1 TNW       0.047867
     36 H14         36.0320    38.4340    11.5720 h1         1 TNW       0.047867
     37 H15         35.9590    43.7380    20.2310 ha         1 TNW       0.118000
     38 H16         36.4060    42.1990    18.3400 ha         1 TNW       0.126000
@<TRIPOS>BOND
     1     1    15 1   
     2     1    23 1   
     3     1    24 1   
     4     1    25 1   
     5     2    13 1   
     6     2    15 1   
     7     2    19 2   
     8     3    17 1   
     9     3    18 2   
    10     3    19 1   
    11     4     5 ar  
    12     4    21 ar  
    13     4    26 1   
    14     5     6 1   
    15     5     7 ar  
    16     6    27 1   
    17     6    28 1   
    18     6    29 1   
    19     7    20 ar  
    20     7    30 1   
    21     8     9 ar  
    22     8    13 ar  
    23     8    17 1   
    24     9    10 ar  
    25     9    31 1   
    26    10    11 ar  
    27    10    14 1   
    28    11    12 ar  
    29    11    32 1   
    30    12    13 ar  
    31    12    33 1   
    32    15    16 1   
    33    16    34 1   
    34    16    35 1   
    35    16    36 1   
    36    17    20 1   
    37    20    22 ar  
    38    21    22 ar  
    39    21    37 1   
    40    22    38 1   
@<TRIPOS>SUBSTRUCTURE
     1 TNW         1 TEMP              0 ****  ****    0 ROOT
