@<TRIPOS>MOLECULE
TNY
   43    43     1     0     0
SMALL
No Charge or Current Charge


@<TRIPOS>ATOM
      1 C           -2.1730     2.1340     9.5030 c          1 TNY       0.906600
      2 N           -0.1050     0.5800    10.0730 n8         1 TNY      -0.883800
      3 O           -1.6750     3.2270     9.7630 o          1 TNY      -0.840300
      4 C1          -1.9930     2.5280    13.4740 c6         1 TNY       0.328900
      5 C2          -1.4390     3.9820    13.6000 c6         1 TNY       0.104700
      6 N2          -1.5990     4.7050    12.3100 ns         1 TNY      -0.556900
      7 C3           0.0560     3.9300    14.0640 c6         1 TNY       0.137100
      8 O3           0.5910     5.2450    14.2850 oh         1 TNY      -0.563800
      9 C4           0.1990     3.0820    15.3630 c6         1 TNY       0.091100
     10 O4          -0.4690     3.7470    16.4560 oh         1 TNY      -0.572800
     11 C5          -0.3950     1.6630    15.0910 c6         1 TNY       0.122100
     12 O5          -1.7810     1.7710    14.6870 os         1 TNY      -0.434600
     13 C6          -0.3450     0.7080    16.3220 c3         1 TNY       0.129400
     14 O6           0.9890     0.5120    16.8150 oh         1 TNY      -0.609800
     15 C7          -1.8450     6.0450    12.1640 c          1 TNY       0.682100
     16 O7          -2.0270     6.7860    13.1200 o          1 TNY      -0.650100
     17 C8          -1.8970     6.5400    10.7260 c3         1 TNY      -0.181100
     18 CA          -1.6000     0.8300    10.2030 c3         1 TNY       0.011500
     19 CB          -2.0860     0.8280    11.6820 c3         1 TNY       0.175100
     20 OG1         -1.3620     1.8710    12.3590 os         1 TNY      -0.438600
     21 CG2         -1.8650    -0.5090    12.4280 c3         1 TNY      -0.102100
     22 OXT         -3.0340     1.9970     8.6400 o          1 TNY      -0.840300
     23 H            0.1710     0.6870     9.0910 hn         1 TNY       0.331300
     24 H2           0.3800     1.3440    10.5550 hn         1 TNY       0.331300
     25 H1          -3.0750     2.6030    13.2840 h2         1 TNY       0.093700
     26 H9          -2.0330     4.4950    14.3700 h1         1 TNY       0.104700
     27 HN2         -1.5030     4.1720    11.4430 hn         1 TNY       0.369500
     28 H3           0.6380     3.4350    13.2720 h1         1 TNY       0.050700
     29 HO3          0.2470     5.5180    15.1610 ho         1 TNY       0.385000
     30 H4           1.2690     2.9760    15.5910 h1         1 TNY       0.032700
     31 HO4         -0.2830     3.2220    17.2630 ho         1 TNY       0.390000
     32 H5           0.1750     1.1840    14.2810 h1         1 TNY       0.064700
     33 H6          -0.9840     1.1180    17.1150 h1         1 TNY       0.033200
     34 H6A         -0.7760    -0.2560    16.0200 h1         1 TNY       0.033200
     35 HO6          0.9350    -0.1420    17.5440 ho         1 TNY       0.399000
     36 H8          -2.0750     7.6180    10.6570 hc         1 TNY       0.061700
     37 H8A         -0.9750     6.2430    10.2130 hc         1 TNY       0.061700
     38 H8B         -2.6590     5.9700    10.1840 hc         1 TNY       0.061700
     39 HA          -2.0950    -0.0130     9.7030 h1         1 TNY       0.044700
     40 HB          -3.1630     1.0440    11.6760 h1         1 TNY       0.050700
     41 HG21        -2.3590    -0.4970    13.4060 hc         1 TNY       0.029367
     42 HG22        -2.2890    -1.3410    11.8530 hc         1 TNY       0.029367
     43 HG23        -0.7970    -0.7050    12.5810 hc         1 TNY       0.029367
@<TRIPOS>BOND
     1     1     3 1   
     2     1    18 1   
     3     1    22 1   
     4     2    18 1   
     5     2    23 1   
     6     2    24 1   
     7     4     5 1   
     8     4    12 1   
     9     4    20 1   
    10     4    25 1   
    11     5     6 1   
    12     5     7 1   
    13     5    26 1   
    14     6    15 1   
    15     6    27 1   
    16     7     8 1   
    17     7     9 1   
    18     7    28 1   
    19     8    29 1   
    20     9    10 1   
    21     9    11 1   
    22     9    30 1   
    23    10    31 1   
    24    11    12 1   
    25    11    13 1   
    26    11    32 1   
    27    13    14 1   
    28    13    33 1   
    29    13    34 1   
    30    14    35 1   
    31    15    16 2   
    32    15    17 1   
    33    17    36 1   
    34    17    37 1   
    35    17    38 1   
    36    18    19 1   
    37    18    39 1   
    38    19    20 1   
    39    19    21 1   
    40    19    40 1   
    41    21    41 1   
    42    21    42 1   
    43    21    43 1   
@<TRIPOS>SUBSTRUCTURE
     1 TNY         1 TEMP              0 ****  ****    0 ROOT
