@<TRIPOS>MOLECULE
TNY
   43    43     1     0     0
SMALL
bcc


@<TRIPOS>ATOM
      1 C           -2.1720     2.3260     9.7810 c          1 TNY       0.906600
      2 N           -0.2040     0.7180     9.9100 n8         1 TNY      -0.883800
      3 O           -1.3430     3.2010     9.4420 o          1 TNY      -0.840300
      4 C1          -1.9470     2.5110    13.3860 c6         1 TNY       0.328900
      5 C2          -1.3580     3.9180    13.5460 c6         1 TNY       0.104700
      6 N2          -1.4330     4.6270    12.2940 ns         1 TNY      -0.556900
      7 C3           0.0640     3.8190    14.0970 c6         1 TNY       0.137100
      8 O3           0.5700     5.1170    14.2590 oh         1 TNY      -0.563800
      9 C4           0.0500     3.0200    15.4060 c6         1 TNY       0.091100
     10 O4          -0.6390     3.7670    16.3800 oh         1 TNY      -0.572800
     11 C5          -0.6030     1.6600    15.1490 c6         1 TNY       0.122100
     12 O5          -1.9000     1.8120    14.5960 os         1 TNY      -0.434600
     13 C6          -0.7990     0.8230    16.4030 c3         1 TNY       0.129400
     14 O6           0.4500     0.6790    17.0360 oh         1 TNY      -0.609800
     15 C7          -1.9210     5.8770    12.1750 c          1 TNY       0.682100
     16 O7          -2.3310     6.5380    13.1200 o          1 TNY      -0.650100
     17 C8          -1.9150     6.4260    10.7680 c3         1 TNY      -0.181100
     18 CA          -1.6060     0.9470    10.2150 c3         1 TNY       0.011500
     19 CB          -1.8810     0.7790    11.7130 c3         1 TNY       0.175100
     20 OG1         -1.2480     1.8750    12.3730 os         1 TNY      -0.438600
     21 CG2         -1.3910    -0.5450    12.2710 c3         1 TNY      -0.102100
     22 OXT         -3.4090     2.4520     9.8350 o          1 TNY      -0.840300
     23 H           -0.1010     0.6390     8.9060 hn         1 TNY       0.331300
     24 H2           0.3100     1.5570    10.1510 hn         1 TNY       0.331300
     25 H1          -3.0130     2.5880    13.1360 h2         1 TNY       0.093700
     26 H9          -1.9810     4.4560    14.2630 h1         1 TNY       0.104700
     27 HN2         -1.1520     4.1400    11.4510 hn         1 TNY       0.369500
     28 H3           0.6770     3.2510    13.3830 h1         1 TNY       0.050700
     29 HO3          1.5060     5.0530    14.4720 ho         1 TNY       0.385000
     30 H4           1.0930     2.8450    15.7060 h1         1 TNY       0.032700
     31 HO4         -0.3830     3.4470    17.2500 ho         1 TNY       0.390000
     32 H5           0.0460     1.1020    14.4600 h1         1 TNY       0.064700
     33 H6          -1.5360     1.3090    17.0550 h1         1 TNY       0.033200
     34 H6A         -1.2220    -0.1470    16.1100 h1         1 TNY       0.033200
     35 HO6          0.3230     0.1740    17.8440 ho         1 TNY       0.399000
     36 H8          -2.8500     6.9510    10.5770 hc         1 TNY       0.061700
     37 H8A         -1.1080     7.1540    10.6700 hc         1 TNY       0.061700
     38 H8B         -1.7770     5.6570    10.0110 hc         1 TNY       0.061700
     39 HA          -2.1880     0.1690     9.7100 h1         1 TNY       0.044700
     40 HB          -2.9650     0.8490    11.8560 h1         1 TNY       0.050700
     41 HG21        -1.6810    -0.6630    13.3150 hc         1 TNY       0.029367
     42 HG22        -1.8290    -1.3720    11.7100 hc         1 TNY       0.029367
     43 HG23        -0.3080    -0.6290    12.1990 hc         1 TNY       0.029367
@<TRIPOS>BOND
     1     1     3 1   
     2     1    18 1   
     3     1    22 1   
     4     2    18 1   
     5     2    23 1   
     6     2    24 1   
     7     4     5 1   
     8     4    12 1   
     9     4    20 1   
    10     4    25 1   
    11     5     6 1   
    12     5     7 1   
    13     5    26 1   
    14     6    15 1   
    15     6    27 1   
    16     7     8 1   
    17     7     9 1   
    18     7    28 1   
    19     8    29 1   
    20     9    10 1   
    21     9    11 1   
    22     9    30 1   
    23    10    31 1   
    24    11    12 1   
    25    11    13 1   
    26    11    32 1   
    27    13    14 1   
    28    13    33 1   
    29    13    34 1   
    30    14    35 1   
    31    15    16 2   
    32    15    17 1   
    33    17    36 1   
    34    17    37 1   
    35    17    38 1   
    36    18    19 1   
    37    18    39 1   
    38    19    20 1   
    39    19    21 1   
    40    19    40 1   
    41    21    41 1   
    42    21    42 1   
    43    21    43 1   
@<TRIPOS>SUBSTRUCTURE
     1 TNY         1 TEMP              0 ****  ****    0 ROOT
