@<TRIPOS>MOLECULE
TNZ
   30    32     1     0     0
SMALL
abcg2


@<TRIPOS>ATOM
      1 C1          35.7700    41.3090    13.3820 ca         1 TNZ       0.368300
      2 C2          37.8030    40.8590    14.2460 ca         1 TNZ       0.071000
      3 C3          39.0670    40.2400    14.1440 ca         1 TNZ      -0.099000
      4 C7          37.5210    41.6610    15.3730 ca         1 TNZ      -0.164000
      5 C8          36.2150    42.2410    15.4060 cp         1 TNZ       0.241500
      6 C9          35.7450    43.0640    16.5400 cp         1 TNZ      -0.168500
      7 C10         35.8280    42.5980    17.8510 ca         1 TNZ      -0.074500
      8 C11         35.3470    43.3710    18.8980 ca         1 TNZ      -0.116500
      9 C12         34.7920    44.6180    18.6460 ca         1 TNZ      -0.092000
     10 C13         34.7050    45.0860    17.3410 ca         1 TNZ      -0.116500
     11 C14         35.1680    44.3080    16.2910 ca         1 TNZ      -0.074500
     12 C5          39.7300    41.2690    16.2100 ca         1 TNZ       0.094000
     13 C4          40.0140    40.4380    15.1110 ca         1 TNZ      -0.070000
     14 C6          38.5140    41.8770    16.3490 ca         1 TNZ      -0.050000
     15 N           36.9000    40.6820    13.2550 nb         1 TNZ      -0.262000
     16 N1          35.3780    42.0790    14.4170 nb         1 TNZ      -0.185000
     17 O           34.8430    41.2210    12.4410 os         1 TNZ      -0.430300
     18 C           35.1300    40.4370    11.2890 c3         1 TNZ       0.160900
     19 H1          39.2770    39.6160    13.2860 ha         1 TNZ       0.138000
     20 H2          36.2430    41.6200    18.0570 ha         1 TNZ       0.123500
     21 H3          35.4050    42.9950    19.9110 ha         1 TNZ       0.117500
     22 H4          34.4250    45.2230    19.4650 ha         1 TNZ       0.115000
     23 H5          34.2720    46.0570    17.1400 ha         1 TNZ       0.117500
     24 H6          35.0940    44.6720    15.2740 ha         1 TNZ       0.123500
     25 H7          40.9840    39.9670    15.0280 ha         1 TNZ       0.133000
     26 H8          38.3240    42.5290    17.1900 ha         1 TNZ       0.140000
     27 H9          34.2490    40.5050    10.6570 h1         1 TNZ       0.051033
     28 H10         35.9950    40.8210    10.7480 h1         1 TNZ       0.051033
     29 H11         35.3110    39.3930    11.5480 h1         1 TNZ       0.051033
     30 CL          40.9640    41.5290    17.3960 cl         1 TNZ      -0.195000
@<TRIPOS>BOND
     1     1    15 ar  
     2     1    16 ar  
     3     1    17 1   
     4     2     3 ar  
     5     2     4 ar  
     6     2    15 ar  
     7     3    13 ar  
     8     3    19 1   
     9     4     5 ar  
    10     4    14 ar  
    11     5     6 1   
    12     5    16 ar  
    13     6     7 ar  
    14     6    11 ar  
    15     7     8 ar  
    16     7    20 1   
    17     8     9 ar  
    18     8    21 1   
    19     9    10 ar  
    20     9    22 1   
    21    10    11 ar  
    22    10    23 1   
    23    11    24 1   
    24    12    13 ar  
    25    12    14 ar  
    26    12    30 1   
    27    13    25 1   
    28    14    26 1   
    29    17    18 1   
    30    18    27 1   
    31    18    28 1   
    32    18    29 1   
@<TRIPOS>SUBSTRUCTURE
     1 TNZ         1 TEMP              0 ****  ****    0 ROOT
