@<TRIPOS>MOLECULE
TNZ
   30    32     1     0     0
SMALL
No Charge or Current Charge


@<TRIPOS>ATOM
      1 C1          35.7370    41.3190    13.3550 ca         1 TNZ       0.368300
      2 C2          37.8420    40.8690    14.2170 ca         1 TNZ       0.071000
      3 C3          39.1050    40.2550    14.1250 ca         1 TNZ      -0.099000
      4 C7          37.5400    41.6720    15.3430 ca         1 TNZ      -0.164000
      5 C8          36.2480    42.2670    15.4020 cp         1 TNZ       0.241500
      6 C9          35.7550    43.0930    16.5500 cp         1 TNZ      -0.168500
      7 C10         35.7970    42.6020    17.8800 ca         1 TNZ      -0.074500
      8 C11         35.3160    43.3740    18.9510 ca         1 TNZ      -0.116500
      9 C12         34.7750    44.6480    18.7130 ca         1 TNZ      -0.092000
     10 C13         34.7100    45.1470    17.4020 ca         1 TNZ      -0.116500
     11 C14         35.1900    44.3750    16.3300 ca         1 TNZ      -0.074500
     12 C5          39.7760    41.2550    16.2340 ca         1 TNZ       0.094000
     13 C4          40.0690    40.4420    15.1300 ca         1 TNZ      -0.070000
     14 C6          38.5200    41.8720    16.3430 ca         1 TNZ      -0.050000
     15 N           36.9320    40.6970    13.2390 nb         1 TNZ      -0.262000
     16 N1          35.3760    42.0970    14.3920 nb         1 TNZ      -0.185000
     17 O           34.7980    41.1660    12.3550 os         1 TNZ      -0.430300
     18 C           35.0620    40.3570    11.1900 c3         1 TNZ       0.160900
     19 H1          39.3410    39.6320    13.2650 ha         1 TNZ       0.138000
     20 H2          36.1970    41.6100    18.0790 ha         1 TNZ       0.123500
     21 H3          35.3590    42.9830    19.9650 ha         1 TNZ       0.117500
     22 H4          34.4020    45.2460    19.5430 ha         1 TNZ       0.115000
     23 H5          34.2860    46.1310    17.2150 ha         1 TNZ       0.117500
     24 H6          35.1320    44.7750    15.3200 ha         1 TNZ       0.123500
     25 H7          41.0420    39.9650    15.0480 ha         1 TNZ       0.133000
     26 H8          38.3300    42.5120    17.1990 ha         1 TNZ       0.140000
     27 H9          34.1960    40.3630    10.5170 h1         1 TNZ       0.051033
     28 H10         35.9270    40.7420    10.6330 h1         1 TNZ       0.051033
     29 H11         35.2650    39.3160    11.4730 h1         1 TNZ       0.051033
     30 Cl          40.9880    41.5060    17.4840 cl         1 TNZ      -0.195000
@<TRIPOS>BOND
     1     1    15 ar  
     2     1    16 ar  
     3     1    17 1   
     4     2     3 ar  
     5     2     4 ar  
     6     2    15 ar  
     7     3    13 ar  
     8     3    19 1   
     9     4     5 ar  
    10     4    14 ar  
    11     5     6 1   
    12     5    16 ar  
    13     6     7 ar  
    14     6    11 ar  
    15     7     8 ar  
    16     7    20 1   
    17     8     9 ar  
    18     8    21 1   
    19     9    10 ar  
    20     9    22 1   
    21    10    11 ar  
    22    10    23 1   
    23    11    24 1   
    24    12    13 ar  
    25    12    14 ar  
    26    12    30 1   
    27    13    25 1   
    28    14    26 1   
    29    17    18 1   
    30    18    27 1   
    31    18    28 1   
    32    18    29 1   
@<TRIPOS>SUBSTRUCTURE
     1 TNZ         1 TEMP              0 ****  ****    0 ROOT
