@<TRIPOS>MOLECULE
TO0
  160   169     1     0     0
SMALL
No Charge or Current Charge


@<TRIPOS>ATOM
      1 C47         12.4690   -18.6650    34.8700 c6         1 TO0       0.161800
      2 C43         10.7760   -14.5130    32.3480 c3         1 TO0       0.144600
      3 C36          3.1550   -12.2660    32.3170 ca         1 TO0      -0.101000
      4 C35          4.2330   -11.3790    32.4510 ca         1 TO0      -0.112000
      5 C33          5.7740   -13.1120    31.6650 ca         1 TO0      -0.100300
      6 C37          3.3820   -13.5780    31.8730 ca         1 TO0      -0.115000
      7 C34          5.5340   -11.8000    32.1310 ca         1 TO0      -0.095000
      8 C32          4.6830   -14.0130    31.5550 ca         1 TO0      -0.065300
      9 C4          11.0440    -5.3140    32.6530 c          1 TO0       0.556100
     10 C7          11.0470    -7.7940    32.0730 c3         1 TO0       0.038700
     11 C9          11.8030    -8.6320    33.1670 c6         1 TO0      -0.062700
     12 C13         13.8690    -8.8210    34.6770 c6         1 TO0      -0.072900
     13 C21         10.2320   -11.4670    28.8990 c5         1 TO0      -0.104400
     14 C18         11.6920    -9.7580    29.8370 c5         1 TO0       0.093000
     15 C19         11.7180   -11.2020    29.2670 c5         1 TO0       0.099700
     16 C1           9.9480    -3.0060    32.3950 c3         1 TO0      -0.086100
     17 C2          10.2050    -4.1870    33.3540 c3         1 TO0       0.100500
     18 O5          12.1510    -5.1160    32.1650 o          1 TO0      -0.622100
     19 N6          10.4460    -6.5570    32.6280 ns         1 TO0      -0.488900
     20 C10         10.9020    -8.9850    34.3890 c6         1 TO0      -0.070900
     21 C11         11.6620    -9.8550    35.4220 c6         1 TO0      -0.072900
     22 C12         12.9620    -9.1560    35.8850 c6         1 TO0      -0.078400
     23 C14         13.1180    -7.9500    33.6410 c6         1 TO0      -0.070900
     24 C15          9.9560    -8.6280    31.3300 c          1 TO0       0.599100
     25 O16          8.7590    -8.4140    31.5020 o          1 TO0      -0.623100
     26 N17         10.3710    -9.6990    30.5100 n          1 TO0      -0.397800
     27 C22          9.4020   -10.7070    29.9940 c5         1 TO0       0.026700
     28 C24          8.9030   -11.6880    31.1000 c          1 TO0       0.591100
     29 O25          9.2770   -11.7390    32.2640 o          1 TO0      -0.616100
     30 N26          7.9240   -12.5120    30.5890 ns         1 TO0      -0.490900
     31 C27          7.2140   -13.5570    31.3380 c6         1 TO0       0.150000
     32 C29          7.2770   -14.8830    30.5450 c6         1 TO0      -0.091400
     33 C30          6.3440   -15.9370    31.1670 c6         1 TO0      -0.071400
     34 C31          4.8780   -15.4600    31.0850 c6         1 TO0      -0.032100
     35 N38         12.0110   -12.0830    30.4130 ns         1 TO0      -0.502900
     36 C39         12.7170   -13.2540    30.1960 c          1 TO0       0.563100
     37 O40         13.0770   -13.6130    29.0810 o          1 TO0      -0.621100
     38 C41         13.0410   -14.0660    31.4710 c3         1 TO0       0.073600
     39 O42         12.0630   -13.8710    32.5260 os         1 TO0      -0.449000
     40 C44         10.8830   -16.0650    32.4640 c3         1 TO0       0.149800
     41 N45         11.6370   -16.5980    33.6330 n3         1 TO0      -0.716600
     42 C46         11.6610   -18.0940    33.6600 c6         1 TO0       0.165800
     43 N48         11.9900   -18.1340    36.1840 n3         1 TO0      -0.718600
     44 C49         11.9900   -16.6360    36.1460 c6         1 TO0       0.161800
     45 C50         11.1570   -16.0770    34.9510 c6         1 TO0       0.165800
     46 C51         12.7350   -18.7000    37.3300 c3         1 TO0       0.187000
     47 C52         12.2260   -18.1590    38.6480 c2         1 TO0      -0.135200
     48 C53         12.9340   -17.3860    39.5070 ce         1 TO0      -0.297200
     49 C54         12.3400   -16.7470    40.7190 c          1 TO0       0.606300
     50 O55         11.4140   -17.2930    41.3040 o          1 TO0      -0.606100
     51 N56         12.7810   -15.4580    41.1090 n          1 TO0      -0.403800
     52 C57         12.1420   -14.7130    42.2280 c6         1 TO0       0.087000
     53 C58         11.3680   -13.4800    41.6950 c6         1 TO0      -0.100400
     54 C59         12.2930   -12.5630    40.8520 c6         1 TO0      -0.086400
     55 C60         12.9960   -13.3760    39.7290 c6         1 TO0       0.084300
     56 C62         13.7250   -14.6040    40.3270 c6         1 TO0       0.088000
     57 N63         13.9460   -12.5530    38.9370 na         1 TO0      -0.036100
     58 C64         14.0850   -12.6880    37.5670 ca         1 TO0       0.168500
     59 C65         15.1580   -11.9090    37.2400 ca         1 TO0      -0.380900
     60 C66         15.6040   -11.2950    38.4680 cc         1 TO0       0.444500
     61 N67         14.8990   -11.7240    39.5220 nd         1 TO0      -0.528100
     62 C68         16.6940   -10.3230    38.5990 ca         1 TO0      -0.119900
     63 C69         17.6380   -10.4540    39.6380 ca         1 TO0      -0.075500
     64 C70         18.6550    -9.4970    39.8020 ca         1 TO0      -0.142500
     65 C71         18.7180    -8.3810    38.9470 ca         1 TO0       0.126100
     66 C72         17.7680    -8.2330    37.9250 ca         1 TO0      -0.142500
     67 C73         16.7510    -9.1900    37.7610 ca         1 TO0      -0.075500
     68 O74         19.7090    -7.4350    39.0790 os         1 TO0      -0.260200
     69 C75         20.1740    -7.0050    40.3020 ca         1 TO0       0.109100
     70 C76         21.5420    -6.7200    40.4470 ca         1 TO0      -0.135500
     71 C77         22.0410    -6.2650    41.6800 ca         1 TO0      -0.089500
     72 C78         21.1680    -6.0880    42.7680 ca         1 TO0      -0.125000
     73 C79         19.7960    -6.3590    42.6230 ca         1 TO0      -0.089500
     74 C80         19.2970    -6.8140    41.3890 ca         1 TO0      -0.135500
     75 C81         15.6400   -11.9290    35.9350 ca         1 TO0       0.444900
     76 N82         15.0270   -12.6590    34.9920 nb         1 TO0      -0.307000
     77 C83         13.9440   -13.3690    35.3940 ca         1 TO0       0.201900
     78 N84         13.4440   -13.4370    36.6500 nb         1 TO0      -0.239000
     79 N85         16.7610   -11.2930    35.5370 nv         1 TO0      -1.061900
     80 N86         10.8270    -3.6680    34.6110 n7         1 TO0      -0.848400
     81 C87         10.9500    -4.6430    35.7150 c3         1 TO0       0.140100
     82 H127        12.3940   -19.7630    34.8540 h1         1 TO0       0.043200
     83 H128        13.5300   -18.4140    34.7270 h1         1 TO0       0.043200
     84 H121        10.0820   -14.1600    33.1210 h1         1 TO0       0.052700
     85 H122        10.3380   -14.2550    31.3760 h1         1 TO0       0.052700
     86 H116         2.1470   -11.9410    32.5640 ha         1 TO0       0.114000
     87 H115         4.0610   -10.3640    32.8040 ha         1 TO0       0.117000
     88 H117         2.5410   -14.2630    31.7800 ha         1 TO0       0.111000
     89 H114         6.3570   -11.0990    32.2530 ha         1 TO0       0.126000
     90 H8          11.7760    -7.5030    31.3060 h1         1 TO0       0.088700
     91 H92         12.0880    -9.5800    32.6920 hc         1 TO0       0.059700
     92 H99         14.2130    -9.7500    34.2020 hc         1 TO0       0.037950
     93 H100        14.7700    -8.2950    35.0200 hc         1 TO0       0.037950
     94 H106        10.0190   -11.0380    27.9130 hc         1 TO0       0.068200
     95 H105         9.9970   -12.5360    28.8230 hc         1 TO0       0.068200
     96 H104        12.5380    -9.5720    30.5100 h1         1 TO0       0.068200
     97 H103        11.7370    -9.0180    29.0260 h1         1 TO0       0.068200
     98 H20         12.4130   -11.3140    28.4220 h1         1 TO0       0.101700
     99 H88          9.3030    -2.2560    32.8680 hc         1 TO0       0.048033
    100 H90         10.8890    -2.5200    32.1060 hc         1 TO0       0.048033
    101 H89          9.4500    -3.3550    31.4830 hc         1 TO0       0.048033
    102 H3           9.2240    -4.6220    33.5910 h1         1 TO0       0.065700
    103 H91          9.5120    -6.6230    33.0180 hn         1 TO0       0.332500
    104 H94         10.5520    -8.0670    34.8820 hc         1 TO0       0.047450
    105 H93         10.0030    -9.5210    34.0550 hc         1 TO0       0.047450
    106 H95         11.0170   -10.0550    36.2880 hc         1 TO0       0.037950
    107 H96         11.9020   -10.8320    34.9800 hc         1 TO0       0.037950
    108 H97         13.4980    -9.7990    36.5940 hc         1 TO0       0.041200
    109 H98         12.7140    -8.2340    36.4290 hc         1 TO0       0.041200
    110 H102        13.7730    -7.7570    32.7800 hc         1 TO0       0.047450
    111 H101        12.8980    -6.9730    34.0900 hc         1 TO0       0.047450
    112 H23          8.5190   -10.2260    29.5530 h1         1 TO0       0.082700
    113 H107         7.6710   -12.3720    29.6190 hn         1 TO0       0.317500
    114 H28          7.7270   -13.7170    32.2980 h1         1 TO0       0.091700
    115 H108         8.3080   -15.2600    30.5240 hc         1 TO0       0.044200
    116 H109         6.9850   -14.7120    29.4990 hc         1 TO0       0.044200
    117 H110         6.4540   -16.8990    30.6480 hc         1 TO0       0.048200
    118 H111         6.6230   -16.1100    32.2160 hc         1 TO0       0.048200
    119 H112         4.5290   -15.5430    30.0460 hc         1 TO0       0.052200
    120 H113         4.2440   -16.1360    31.6740 hc         1 TO0       0.052200
    121 H118        11.7190   -11.8990    31.3680 hn         1 TO0       0.356500
    122 H119        13.1400   -15.1230    31.1970 h1         1 TO0       0.080200
    123 H120        14.0230   -13.7190    31.8150 h1         1 TO0       0.080200
    124 H123         9.8580   -16.4590    32.4840 h1         1 TO0       0.033200
    125 H124        11.3380   -16.4430    31.5390 h1         1 TO0       0.033200
    126 H125        10.6330   -18.4840    33.7150 h1         1 TO0       0.040200
    127 H126        12.1010   -18.4830    32.7300 h1         1 TO0       0.040200
    128 H129        13.0210   -16.2610    36.0620 h1         1 TO0       0.043200
    129 H130        11.5710   -16.2190    37.0720 h1         1 TO0       0.043200
    130 H131        11.2190   -14.9800    34.9810 h1         1 TO0       0.040200
    131 H132        10.1010   -16.3440    35.1030 h1         1 TO0       0.040200
    132 H134        12.6380   -19.7940    37.3360 h1         1 TO0       0.042200
    133 H133        13.8060   -18.4720    37.2330 h1         1 TO0       0.042200
    134 H135        11.1810   -18.4020    38.8440 ha         1 TO0       0.201000
    135 H136        13.9560   -17.1220    39.2560 ha         1 TO0       0.182000
    136 H138        12.9220   -14.3810    42.9280 h1         1 TO0       0.067200
    137 H137        11.4570   -15.3590    42.7960 h1         1 TO0       0.067200
    138 H139        10.9420   -12.9150    42.5350 hc         1 TO0       0.055200
    139 H140        10.5220   -13.8180    41.0810 hc         1 TO0       0.055200
    140 H141        13.0410   -12.1030    41.5120 hc         1 TO0       0.059700
    141 H142        11.7110   -11.7410    40.4140 hc         1 TO0       0.059700
    142 H61         12.2180   -13.7480    39.0470 h1         1 TO0       0.090700
    143 H143        14.2140   -15.1460    39.5120 h1         1 TO0       0.066700
    144 H144        14.5260   -14.2580    40.9970 h1         1 TO0       0.066700
    145 H145        17.5910   -11.3070    40.3130 ha         1 TO0       0.124500
    146 H146        19.3910    -9.6240    40.5930 ha         1 TO0       0.132000
    147 H147        17.8110    -7.3670    37.2680 ha         1 TO0       0.132000
    148 H148        16.0010    -9.0450    36.9880 ha         1 TO0       0.124500
    149 H149        22.2150    -6.8560    39.6040 ha         1 TO0       0.128000
    150 H150        23.1020    -6.0500    41.7920 ha         1 TO0       0.117000
    151 H151        21.5540    -5.7360    43.7220 ha         1 TO0       0.117000
    152 H152        19.1210    -6.2150    43.4630 ha         1 TO0       0.117000
    153 H153        18.2340    -7.0110    41.2790 ha         1 TO0       0.128000
    154 H154        13.4480   -13.9750    34.6390 h5         1 TO0       0.074100
    155 H156        17.1620   -11.5510    34.6410 hn         1 TO0       0.498500
    156 H155        17.3990   -10.9420    36.2430 hn         1 TO0       0.498500
    157 H157        11.7700    -3.3230    34.3810 hn         1 TO0       0.426000
    158 H160        11.3900    -4.1680    36.6020 h1         1 TO0       0.035033
    159 H159         9.9650    -5.0410    35.9970 h1         1 TO0       0.035033
    160 H158        11.5910    -5.4880    35.4310 h1         1 TO0       0.035033
@<TRIPOS>BOND
     1     1    42 1   
     2     1    43 1   
     3     1    82 1   
     4     1    83 1   
     5     2    39 1   
     6     2    40 1   
     7     2    84 1   
     8     2    85 1   
     9     3     4 ar  
    10     3     6 ar  
    11     3    86 1   
    12     4     7 ar  
    13     4    87 1   
    14     5     7 ar  
    15     5     8 ar  
    16     5    31 1   
    17     6     8 ar  
    18     6    88 1   
    19     7    89 1   
    20     8    34 1   
    21     9    17 1   
    22     9    18 2   
    23     9    19 1   
    24    10    11 1   
    25    10    19 1   
    26    10    24 1   
    27    10    90 1   
    28    11    20 1   
    29    11    23 1   
    30    11    91 1   
    31    12    22 1   
    32    12    23 1   
    33    12    92 1   
    34    12    93 1   
    35    13    15 1   
    36    13    27 1   
    37    13    94 1   
    38    13    95 1   
    39    14    15 1   
    40    14    26 1   
    41    14    96 1   
    42    14    97 1   
    43    15    35 1   
    44    15    98 1   
    45    16    17 1   
    46    16    99 1   
    47    16   100 1   
    48    16   101 1   
    49    17    80 1   
    50    17   102 1   
    51    19   103 1   
    52    20    21 1   
    53    20   104 1   
    54    20   105 1   
    55    21    22 1   
    56    21   106 1   
    57    21   107 1   
    58    22   108 1   
    59    22   109 1   
    60    23   110 1   
    61    23   111 1   
    62    24    25 2   
    63    24    26 1   
    64    26    27 1   
    65    27    28 1   
    66    27   112 1   
    67    28    29 2   
    68    28    30 1   
    69    30    31 1   
    70    30   113 1   
    71    31    32 1   
    72    31   114 1   
    73    32    33 1   
    74    32   115 1   
    75    32   116 1   
    76    33    34 1   
    77    33   117 1   
    78    33   118 1   
    79    34   119 1   
    80    34   120 1   
    81    35    36 1   
    82    35   121 1   
    83    36    37 2   
    84    36    38 1   
    85    38    39 1   
    86    38   122 1   
    87    38   123 1   
    88    40    41 1   
    89    40   124 1   
    90    40   125 1   
    91    41    42 1   
    92    41    45 1   
    93    42   126 1   
    94    42   127 1   
    95    43    44 1   
    96    43    46 1   
    97    44    45 1   
    98    44   128 1   
    99    44   129 1   
   100    45   130 1   
   101    45   131 1   
   102    46    47 1   
   103    46   132 1   
   104    46   133 1   
   105    47    48 2   
   106    47   134 1   
   107    48    49 1   
   108    48   135 1   
   109    49    50 2   
   110    49    51 1   
   111    51    52 1   
   112    51    56 1   
   113    52    53 1   
   114    52   136 1   
   115    52   137 1   
   116    53    54 1   
   117    53   138 1   
   118    53   139 1   
   119    54    55 1   
   120    54   140 1   
   121    54   141 1   
   122    55    56 1   
   123    55    57 1   
   124    55   142 1   
   125    56   143 1   
   126    56   144 1   
   127    57    58 1   
   128    57    61 1   
   129    58    59 ar  
   130    58    78 ar  
   131    59    60 1   
   132    59    75 ar  
   133    60    61 2   
   134    60    62 1   
   135    62    63 ar  
   136    62    67 ar  
   137    63    64 ar  
   138    63   145 1   
   139    64    65 ar  
   140    64   146 1   
   141    65    66 ar  
   142    65    68 1   
   143    66    67 ar  
   144    66   147 1   
   145    67   148 1   
   146    68    69 1   
   147    69    70 ar  
   148    69    74 ar  
   149    70    71 ar  
   150    70   149 1   
   151    71    72 ar  
   152    71   150 1   
   153    72    73 ar  
   154    72   151 1   
   155    73    74 ar  
   156    73   152 1   
   157    74   153 1   
   158    75    76 ar  
   159    75    79 1   
   160    76    77 ar  
   161    77    78 ar  
   162    77   154 1   
   163    79   155 1   
   164    79   156 1   
   165    80    81 1   
   166    80   157 1   
   167    81   158 1   
   168    81   159 1   
   169    81   160 1   
@<TRIPOS>SUBSTRUCTURE
     1 TO0         1 TEMP              0 ****  ****    0 ROOT
