@<TRIPOS>MOLECULE
TO0
  160   169     1     0     0
SMALL
abcg2


@<TRIPOS>ATOM
      1 C47         12.4400   -18.8250    34.6240 c6         1 TO0       0.161800
      2 C43         11.2660   -15.1050    31.5700 c3         1 TO0       0.144600
      3 C36          4.0920   -12.6950    34.6960 ca         1 TO0      -0.101000
      4 C35          4.9390   -11.6430    34.3560 ca         1 TO0      -0.112000
      5 C33          6.3860   -13.1890    33.1690 ca         1 TO0      -0.100300
      6 C37          4.3890   -13.9790    34.2620 ca         1 TO0      -0.115000
      7 C34          6.0750   -11.8980    33.6010 ca         1 TO0      -0.095000
      8 C32          5.5250   -14.2470    33.4930 ca         1 TO0      -0.065300
      9 C4          11.0900    -5.4120    32.3920 c          1 TO0       0.556100
     10 C7          11.3070    -7.8640    32.5110 c3         1 TO0       0.038700
     11 C9          12.1160    -8.5010    33.6680 c6         1 TO0      -0.062700
     12 C13         14.1130    -8.1880    35.2020 c6         1 TO0      -0.072900
     13 C21         10.1790   -11.2110    29.3210 c5         1 TO0      -0.104400
     14 C18         11.8300    -9.8320    30.3980 c5         1 TO0       0.093000
     15 C19         11.6920   -11.1170    29.5730 c5         1 TO0       0.099700
     16 C1           9.2480    -3.9690    31.5540 c3         1 TO0      -0.086100
     17 C2          10.1800    -4.2230    32.7400 c3         1 TO0       0.100500
     18 O5          12.0940    -5.2600    31.6970 o          1 TO0      -0.622100
     19 N6          10.6950    -6.6030    32.8810 ns         1 TO0      -0.488900
     20 C10         11.2580    -8.8590    34.8860 c6         1 TO0      -0.070900
     21 C11         12.1050    -9.4770    36.0000 c6         1 TO0      -0.072900
     22 C12         13.2540    -8.5580    36.4100 c6         1 TO0      -0.078400
     23 C14         13.2760    -7.5850    34.0720 c6         1 TO0      -0.070900
     24 C15         10.2060    -8.8020    32.0250 c          1 TO0       0.599100
     25 O16          9.0680    -8.7410    32.4990 o          1 TO0      -0.623100
     26 N17         10.5350    -9.7040    31.0850 n          1 TO0      -0.397800
     27 C22          9.5370   -10.6520    30.6030 c5         1 TO0       0.026700
     28 C24          9.2810   -11.7430    31.6510 c          1 TO0       0.591100
     29 O25         10.1560   -12.0770    32.4530 o          1 TO0      -0.616100
     30 N26          8.0680   -12.3100    31.5910 ns         1 TO0      -0.490900
     31 C27          7.6750   -13.4510    32.4050 c6         1 TO0       0.150000
     32 C29          7.5990   -14.7330    31.5760 c6         1 TO0      -0.091400
     33 C30          7.1780   -15.8900    32.4730 c6         1 TO0      -0.071400
     34 C31          5.7660   -15.6590    33.0050 c6         1 TO0      -0.032100
     35 N38         12.1970   -12.2810    30.2800 ns         1 TO0      -0.502900
     36 C39         13.0200   -13.1830    29.7280 c          1 TO0       0.563100
     37 O40         13.5230   -13.0870    28.6070 o          1 TO0      -0.621100
     38 C41         13.3410   -14.3930    30.6040 c3         1 TO0       0.073600
     39 O42         12.5410   -14.4830    31.7610 os         1 TO0      -0.449000
     40 C44         11.2800   -16.6030    31.8290 c3         1 TO0       0.149800
     41 N45         11.8360   -16.9760    33.1230 n3         1 TO0      -0.716600
     42 C46         11.7690   -18.4200    33.3230 c6         1 TO0       0.165800
     43 N48         11.8410   -18.1270    35.7590 n3         1 TO0      -0.718600
     44 C49         11.9160   -16.6830    35.5460 c6         1 TO0       0.161800
     45 C50         11.2260   -16.2890    34.2540 c6         1 TO0       0.165800
     46 C51         12.4770   -18.5340    37.0160 c3         1 TO0       0.187000
     47 C52         11.8160   -17.8780    38.1860 c2         1 TO0      -0.135200
     48 C53         12.4280   -17.0080    38.9850 ce         1 TO0      -0.297200
     49 C54         11.6730   -16.2690    40.0310 c          1 TO0       0.606300
     50 O55         10.6610   -16.7550    40.5490 o          1 TO0      -0.606100
     51 N56         12.1130   -15.0220    40.3570 n          1 TO0      -0.403800
     52 C57         11.2770   -14.1490    41.1830 c6         1 TO0       0.087000
     53 C58         10.5930   -13.1020    40.3000 c6         1 TO0      -0.100400
     54 C59         11.6110   -12.3090    39.4760 c6         1 TO0      -0.086400
     55 C60         12.5370   -13.2550    38.7120 c6         1 TO0       0.084300
     56 C62         13.1630   -14.2900    39.6610 c6         1 TO0       0.088000
     57 N63         13.5890   -12.5500    38.0000 na         1 TO0      -0.036100
     58 C64         13.8430   -12.5600    36.6700 ca         1 TO0       0.168500
     59 C65         15.0020   -11.7860    36.4680 ca         1 TO0      -0.380900
     60 C66         15.3680   -11.3310    37.7750 cc         1 TO0       0.444500
     61 N67         14.5110   -11.8030    38.6690 nd         1 TO0      -0.528100
     62 C68         16.4680   -10.4610    38.2120 ca         1 TO0      -0.119900
     63 C69         17.1630   -10.7470    39.3920 ca         1 TO0      -0.075500
     64 C70         18.1620    -9.9050    39.8560 ca         1 TO0      -0.142500
     65 C71         18.4740    -8.7530    39.1390 ca         1 TO0       0.126100
     66 C72         17.8030    -8.4530    37.9610 ca         1 TO0      -0.142500
     67 C73         16.8060    -9.3050    37.5040 ca         1 TO0      -0.075500
     68 O74         19.4850    -7.9020    39.5260 os         1 TO0      -0.260200
     69 C75         19.6480    -7.6070    40.8680 ca         1 TO0       0.109100
     70 C76         20.9480    -7.5280    41.3500 ca         1 TO0      -0.135500
     71 C77         21.1630    -7.1630    42.6750 ca         1 TO0      -0.089500
     72 C78         20.0860    -6.8860    43.5120 ca         1 TO0      -0.125000
     73 C79         18.7890    -6.9690    43.0140 ca         1 TO0      -0.089500
     74 C80         18.5610    -7.3250    41.6900 ca         1 TO0      -0.135500
     75 C81         15.4750   -11.7420    35.1320 ca         1 TO0       0.444900
     76 N82         14.7510   -12.3370    34.1670 nb         1 TO0      -0.307000
     77 C83         13.6380   -13.0040    34.5050 ca         1 TO0       0.201900
     78 N84         13.1310   -13.1820    35.7180 nb         1 TO0      -0.239000
     79 N85         16.6360   -11.1700    34.7670 nv         1 TO0      -1.061900
     80 N86         10.9290    -3.0190    33.0630 n7         1 TO0      -0.848400
     81 C87         11.7770    -3.1550    34.2460 c3         1 TO0       0.140100
     82 H127        12.3290   -19.9010    34.7720 h1         1 TO0       0.043200
     83 H128        13.5200   -18.6040    34.5550 h1         1 TO0       0.043200
     84 H121        10.5860   -14.5960    32.2470 h1         1 TO0       0.052700
     85 H122        10.9030   -14.9250    30.5540 h1         1 TO0       0.052700
     86 H116         3.2060   -12.5150    35.2920 ha         1 TO0       0.114000
     87 H115         4.7200   -10.6340    34.6800 ha         1 TO0       0.117000
     88 H117         3.7270   -14.7980    34.5180 ha         1 TO0       0.111000
     89 H114         6.7320   -11.0800    33.3360 ha         1 TO0       0.126000
     90 H8          11.9990    -7.6440    31.7000 h1         1 TO0       0.088700
     91 H92         12.5410    -9.4320    33.2770 hc         1 TO0       0.059700
     92 H99         14.6170    -9.0870    34.8330 hc         1 TO0       0.037950
     93 H100        14.8980    -7.4830    35.4910 hc         1 TO0       0.037950
     94 H106         9.9110   -10.5670    28.4840 hc         1 TO0       0.068200
     95 H105         9.8590   -12.2260    29.0940 hc         1 TO0       0.068200
     96 H104        12.6550    -9.9000    31.1030 h1         1 TO0       0.068200
     97 H103        11.9950    -8.9750    29.7410 h1         1 TO0       0.068200
     98 H20         12.2500   -11.0460    28.6440 h1         1 TO0       0.101700
     99 H88          8.5560    -3.1610    31.7960 hc         1 TO0       0.048033
    100 H90          9.8260    -3.6820    30.6740 hc         1 TO0       0.048033
    101 H89          8.6730    -4.8640    31.3110 hc         1 TO0       0.048033
    102 H3           9.5820    -4.4860    33.6160 h1         1 TO0       0.065700
    103 H91          9.8200    -6.6550    33.3800 hn         1 TO0       0.332500
    104 H94         10.7710    -7.9540    35.2640 hc         1 TO0       0.047450
    105 H93         10.4680    -9.5530    34.6000 hc         1 TO0       0.047450
    106 H95         11.4750    -9.7050    36.8630 hc         1 TO0       0.037950
    107 H96         12.5130   -10.4280    35.6470 hc         1 TO0       0.037950
    108 H97         13.8630    -9.0420    37.1760 hc         1 TO0       0.041200
    109 H98         12.8450    -7.6480    36.8620 hc         1 TO0       0.041200
    110 H102        13.9080    -7.3850    33.2030 hc         1 TO0       0.047450
    111 H101        12.8680    -6.6230    34.3970 hc         1 TO0       0.047450
    112 H23          8.6020   -10.1370    30.3920 h1         1 TO0       0.082700
    113 H107         7.4130   -11.9790    30.8980 hn         1 TO0       0.317500
    114 H28          8.4810   -13.5720    33.1320 h1         1 TO0       0.091700
    115 H108         8.5710   -14.9160    31.1180 hc         1 TO0       0.044200
    116 H109         6.8750   -14.5990    30.7650 hc         1 TO0       0.044200
    117 H110         7.2200   -16.8340    31.9270 hc         1 TO0       0.048200
    118 H111         7.8860   -15.9730    33.3030 hc         1 TO0       0.048200
    119 H112         5.0490   -15.8640    32.2020 hc         1 TO0       0.052200
    120 H113         5.5340   -16.3640    33.8070 hc         1 TO0       0.052200
    121 H118        11.8230   -12.4790    31.2020 hn         1 TO0       0.356500
    122 H119        13.2620   -15.2840    29.9760 h1         1 TO0       0.080200
    123 H120        14.3800   -14.3000    30.9270 h1         1 TO0       0.080200
    124 H123        10.2350   -16.9470    31.7180 h1         1 TO0       0.033200
    125 H124        11.8630   -17.1110    31.0580 h1         1 TO0       0.033200
    126 H125        10.7200   -18.7660    33.3340 h1         1 TO0       0.040200
    127 H126        12.2700   -18.9150    32.4890 h1         1 TO0       0.040200
    128 H129        12.9660   -16.3430    35.5120 h1         1 TO0       0.043200
    129 H130        11.4370   -16.1700    36.3780 h1         1 TO0       0.043200
    130 H131        11.3280   -15.2130    34.1290 h1         1 TO0       0.040200
    131 H132        10.1470   -16.5150    34.3290 h1         1 TO0       0.040200
    132 H134        12.3760   -19.6210    37.0930 h1         1 TO0       0.042200
    133 H133        13.5530   -18.2970    37.0150 h1         1 TO0       0.042200
    134 H135        10.7580   -18.0790    38.3230 ha         1 TO0       0.201000
    135 H136        13.4710   -16.7870    38.8160 ha         1 TO0       0.182000
    136 H138        11.9220   -13.6620    41.9200 h1         1 TO0       0.067200
    137 H137        10.5500   -14.7600    41.7060 h1         1 TO0       0.067200
    138 H139        10.0110   -12.4230    40.9250 hc         1 TO0       0.055200
    139 H140         9.8930   -13.6140    39.6330 hc         1 TO0       0.055200
    140 H141        12.2190   -11.6880    40.1390 hc         1 TO0       0.059700
    141 H142        11.1050   -11.6450    38.7730 hc         1 TO0       0.059700
    142 H61         11.9750   -13.7890    37.9440 h1         1 TO0       0.090700
    143 H143        13.8120   -14.9530    39.1020 h1         1 TO0       0.066700
    144 H144        13.7710   -13.7730    40.4060 h1         1 TO0       0.066700
    145 H145        16.9210   -11.6440    39.9470 ha         1 TO0       0.124500
    146 H146        18.6940   -10.1410    40.7670 ha         1 TO0       0.132000
    147 H147        18.0510    -7.5480    37.4220 ha         1 TO0       0.132000
    148 H148        16.2550    -9.0320    36.6150 ha         1 TO0       0.124500
    149 H149        21.7750    -7.7520    40.6880 ha         1 TO0       0.128000
    150 H150        22.1760    -7.1020    43.0530 ha         1 TO0       0.117000
    151 H151        20.2560    -6.6080    44.5440 ha         1 TO0       0.117000
    152 H152        17.9460    -6.7480    43.6570 ha         1 TO0       0.117000
    153 H153        17.5550    -7.3870    41.3000 ha         1 TO0       0.128000
    154 H154        13.1030   -13.4630    33.6810 h5         1 TO0       0.074100
    155 H156        16.8120   -11.0340    33.7850 hn         1 TO0       0.498500
    156 H155        17.1440   -10.5940    35.4160 hn         1 TO0       0.498500
    157 H157        11.5060    -2.7760    32.2640 hn         1 TO0       0.426000
    158 H160        12.3050    -2.2180    34.4210 h1         1 TO0       0.035033
    159 H159        11.1510    -3.3630    35.1170 h1         1 TO0       0.035033
    160 H158        12.5230    -3.9570    34.1650 h1         1 TO0       0.035033
@<TRIPOS>BOND
     1     1    42 1   
     2     1    43 1   
     3     1    82 1   
     4     1    83 1   
     5     2    39 1   
     6     2    40 1   
     7     2    84 1   
     8     2    85 1   
     9     3     4 ar  
    10     3     6 ar  
    11     3    86 1   
    12     4     7 ar  
    13     4    87 1   
    14     5     7 ar  
    15     5     8 ar  
    16     5    31 1   
    17     6     8 ar  
    18     6    88 1   
    19     7    89 1   
    20     8    34 1   
    21     9    17 1   
    22     9    18 2   
    23     9    19 1   
    24    10    11 1   
    25    10    19 1   
    26    10    24 1   
    27    10    90 1   
    28    11    20 1   
    29    11    23 1   
    30    11    91 1   
    31    12    22 1   
    32    12    23 1   
    33    12    92 1   
    34    12    93 1   
    35    13    15 1   
    36    13    27 1   
    37    13    94 1   
    38    13    95 1   
    39    14    15 1   
    40    14    26 1   
    41    14    96 1   
    42    14    97 1   
    43    15    35 1   
    44    15    98 1   
    45    16    17 1   
    46    16    99 1   
    47    16   100 1   
    48    16   101 1   
    49    17    80 1   
    50    17   102 1   
    51    19   103 1   
    52    20    21 1   
    53    20   104 1   
    54    20   105 1   
    55    21    22 1   
    56    21   106 1   
    57    21   107 1   
    58    22   108 1   
    59    22   109 1   
    60    23   110 1   
    61    23   111 1   
    62    24    25 2   
    63    24    26 1   
    64    26    27 1   
    65    27    28 1   
    66    27   112 1   
    67    28    29 2   
    68    28    30 1   
    69    30    31 1   
    70    30   113 1   
    71    31    32 1   
    72    31   114 1   
    73    32    33 1   
    74    32   115 1   
    75    32   116 1   
    76    33    34 1   
    77    33   117 1   
    78    33   118 1   
    79    34   119 1   
    80    34   120 1   
    81    35    36 1   
    82    35   121 1   
    83    36    37 2   
    84    36    38 1   
    85    38    39 1   
    86    38   122 1   
    87    38   123 1   
    88    40    41 1   
    89    40   124 1   
    90    40   125 1   
    91    41    42 1   
    92    41    45 1   
    93    42   126 1   
    94    42   127 1   
    95    43    44 1   
    96    43    46 1   
    97    44    45 1   
    98    44   128 1   
    99    44   129 1   
   100    45   130 1   
   101    45   131 1   
   102    46    47 1   
   103    46   132 1   
   104    46   133 1   
   105    47    48 2   
   106    47   134 1   
   107    48    49 1   
   108    48   135 1   
   109    49    50 2   
   110    49    51 1   
   111    51    52 1   
   112    51    56 1   
   113    52    53 1   
   114    52   136 1   
   115    52   137 1   
   116    53    54 1   
   117    53   138 1   
   118    53   139 1   
   119    54    55 1   
   120    54   140 1   
   121    54   141 1   
   122    55    56 1   
   123    55    57 1   
   124    55   142 1   
   125    56   143 1   
   126    56   144 1   
   127    57    58 1   
   128    57    61 1   
   129    58    59 ar  
   130    58    78 ar  
   131    59    60 1   
   132    59    75 ar  
   133    60    61 2   
   134    60    62 1   
   135    62    63 ar  
   136    62    67 ar  
   137    63    64 ar  
   138    63   145 1   
   139    64    65 ar  
   140    64   146 1   
   141    65    66 ar  
   142    65    68 1   
   143    66    67 ar  
   144    66   147 1   
   145    67   148 1   
   146    68    69 1   
   147    69    70 ar  
   148    69    74 ar  
   149    70    71 ar  
   150    70   149 1   
   151    71    72 ar  
   152    71   150 1   
   153    72    73 ar  
   154    72   151 1   
   155    73    74 ar  
   156    73   152 1   
   157    74   153 1   
   158    75    76 ar  
   159    75    79 1   
   160    76    77 ar  
   161    77    78 ar  
   162    77   154 1   
   163    79   155 1   
   164    79   156 1   
   165    80    81 1   
   166    80   157 1   
   167    81   158 1   
   168    81   159 1   
   169    81   160 1   
@<TRIPOS>SUBSTRUCTURE
     1 TO0         1 TEMP              0 ****  ****    0 ROOT
