@<TRIPOS>MOLECULE
TO1
   34    36     1     0     0
SMALL
abcg2


@<TRIPOS>ATOM
      1 C            1.2370    -0.8550     0.8270 c5         1 TO1       0.313300
      2 N            0.0020    -0.1270     0.5230 na         1 TO1      -0.206400
      3 O            2.2240     0.0540     1.1950 os         1 TO1      -0.426000
      4 C2          -1.2150    -0.7310     0.3670 ca         1 TO1       0.146500
      5 N2          -1.4440    -2.0390     0.4680 nb         1 TO1      -0.230000
      6 O2           2.5160    -2.6860     0.0610 oh         1 TO1      -0.699000
      7 C3          -2.7120    -2.3440     0.2690 ca         1 TO1       0.184900
      8 N3          -3.7190    -1.5230    -0.0090 nb         1 TO1      -0.299000
      9 O3           3.6670    -1.0500    -1.8430 oh         1 TO1      -0.706000
     10 C4          -3.4800    -0.2120    -0.1100 ca         1 TO1       0.442900
     11 N4          -2.4480     3.8230    -0.3350 n1         1 TO1      -0.477000
     12 C5          -2.1620     0.2490     0.0870 ca         1 TO1      -0.230800
     13 N5          -4.5010     0.5970    -0.3970 nv         1 TO1      -1.069900
     14 C6          -1.4600     1.4960     0.0850 cc         1 TO1      -0.044900
     15 C7          -0.1440     1.2120     0.3610 cd         1 TO1      -0.099100
     16 C8          -1.9870     2.7820    -0.1430 cg         1 TO1       0.321700
     17 C9           1.7560    -1.6040    -0.3990 c5         1 TO1       0.104300
     18 C10          2.6490    -0.5330    -1.0350 c5         1 TO1       0.088300
     19 C11          3.2440     0.1460     0.1970 c5         1 TO1       0.160300
     20 C12          3.6320     1.5830    -0.0460 c3         1 TO1       0.162600
     21 H            1.0130    -1.5370     1.6510 h2         1 TO1       0.130700
     22 HO2          3.2060    -2.8600    -0.5920 ho         1 TO1       0.525000
     23 H3          -2.9700    -3.3950     0.3400 h5         1 TO1       0.048100
     24 HO3          3.3160    -1.2040    -2.7260 ho         1 TO1       0.519000
     25 HO4          4.4610     3.0190     0.9520 ho         1 TO1       0.508000
     26 HN5         -5.4260     0.2150    -0.4960 hn         1 TO1       0.505500
     27 HN5A        -4.4020     1.5950    -0.4490 hn         1 TO1       0.505500
     28 H7           0.6820     1.8970     0.4580 h4         1 TO1       0.237000
     29 H9           0.9450    -1.9260    -1.0620 h1         1 TO1       0.080700
     30 H10          2.0190     0.1780    -1.5860 h1         1 TO1       0.055700
     31 H11          4.1250    -0.4130     0.5360 h1         1 TO1       0.096700
     32 H12          2.7550     2.1510    -0.3870 h1         1 TO1       0.026700
     33 H12A         4.3510     1.5890    -0.8750 h1         1 TO1       0.026700
     34 O4           4.1800     2.1170     1.1330 oh         1 TO1      -0.702000
@<TRIPOS>BOND
     1     1     2 1   
     2     1     3 1   
     3     1    17 1   
     4     1    21 1   
     5     2     4 1   
     6     2    15 1   
     7     3    19 1   
     8     4     5 ar  
     9     4    12 ar  
    10     5     7 ar  
    11     6    17 1   
    12     6    22 1   
    13     7     8 ar  
    14     7    23 1   
    15     8    10 ar  
    16     9    18 1   
    17     9    24 1   
    18    10    12 ar  
    19    10    13 1   
    20    11    16 3   
    21    12    14 1   
    22    13    26 1   
    23    13    27 1   
    24    14    15 2   
    25    14    16 1   
    26    15    28 1   
    27    17    18 1   
    28    17    29 1   
    29    18    19 1   
    30    18    30 1   
    31    19    20 1   
    32    19    31 1   
    33    20    32 1   
    34    20    33 1   
    35    20    34 1   
    36    25    34 1   
@<TRIPOS>SUBSTRUCTURE
     1 TO1         1 TEMP              0 ****  ****    0 ROOT
