@<TRIPOS>MOLECULE
TO1
   34    36     1     0     0
SMALL
No Charge or Current Charge


@<TRIPOS>ATOM
      1 C            1.2160    -0.7890     0.8280 c5         1 TO1       0.313300
      2 N           -0.0670    -0.1410     0.5220 na         1 TO1      -0.206400
      3 O            2.1990     0.2300     1.1650 os         1 TO1      -0.426000
      4 C2          -1.2960    -0.7720     0.3700 ca         1 TO1       0.146500
      5 N2          -1.6080    -2.0790     0.4750 nb         1 TO1      -0.230000
      6 O2           2.6760    -2.6980     0.0590 oh         1 TO1      -0.699000
      7 C3          -2.9060    -2.4030     0.2680 ca         1 TO1       0.184900
      8 N3          -3.9140    -1.5510    -0.0330 nb         1 TO1      -0.299000
      9 O3           3.6580    -1.0710    -1.9340 oh         1 TO1      -0.706000
     10 C4          -3.5820    -0.2570    -0.1340 ca         1 TO1       0.442900
     11 N4          -2.7500     3.7500    -0.4540 n1         1 TO1      -0.477000
     12 C5          -2.2590     0.1600     0.0680 ca         1 TO1      -0.230800
     13 N5          -4.6030     0.5850    -0.4350 nv         1 TO1      -1.069900
     14 C6          -1.6380     1.4570     0.0240 cc         1 TO1      -0.044900
     15 C7          -0.2980     1.2440     0.3080 cd         1 TO1      -0.099100
     16 C8          -2.2320     2.7250    -0.2420 cg         1 TO1       0.321700
     17 C9           1.8300    -1.6130    -0.3600 c5         1 TO1       0.104300
     18 C10          2.6830    -0.5060    -1.0390 c5         1 TO1       0.088300
     19 C11          3.3050     0.1530     0.2300 c5         1 TO1       0.160300
     20 C12          3.9260     1.5580    -0.0090 c3         1 TO1       0.162600
     21 H            1.0260    -1.4430     1.6890 h2         1 TO1       0.130700
     22 HO2          3.4260    -2.6770    -0.5860 ho         1 TO1       0.525000
     23 H3          -3.1650    -3.4570     0.3520 h5         1 TO1       0.048100
     24 HO3          3.3100    -0.9780    -2.8550 ho         1 TO1       0.519000
     25 HO4          4.9630     2.9330     0.9450 ho         1 TO1       0.508000
     26 HN5         -5.5530     0.2300    -0.3490 hn         1 TO1       0.505500
     27 HN5A        -4.4770     1.5830    -0.2900 hn         1 TO1       0.505500
     28 H7           0.5020     1.9770     0.3760 h4         1 TO1       0.237000
     29 H9           1.0420    -1.9790    -1.0350 h1         1 TO1       0.080700
     30 H10          2.0400     0.2150    -1.5660 h1         1 TO1       0.055700
     31 H11          4.0800    -0.4980     0.6570 h1         1 TO1       0.096700
     32 H12          3.1250     2.2580    -0.2820 h1         1 TO1       0.026700
     33 H12A         4.6140     1.4930    -0.8630 h1         1 TO1       0.026700
     34 O4           4.6360     2.0270     1.1530 oh         1 TO1      -0.702000
@<TRIPOS>BOND
     1     1     2 1   
     2     1     3 1   
     3     1    17 1   
     4     1    21 1   
     5     2     4 1   
     6     2    15 1   
     7     3    19 1   
     8     4     5 ar  
     9     4    12 ar  
    10     5     7 ar  
    11     6    17 1   
    12     6    22 1   
    13     7     8 ar  
    14     7    23 1   
    15     8    10 ar  
    16     9    18 1   
    17     9    24 1   
    18    10    12 ar  
    19    10    13 1   
    20    11    16 3   
    21    12    14 1   
    22    13    26 1   
    23    13    27 1   
    24    14    15 2   
    25    14    16 1   
    26    15    28 1   
    27    17    18 1   
    28    17    29 1   
    29    18    19 1   
    30    18    30 1   
    31    19    20 1   
    32    19    31 1   
    33    20    32 1   
    34    20    33 1   
    35    20    34 1   
    36    25    34 1   
@<TRIPOS>SUBSTRUCTURE
     1 TO1         1 TEMP              0 ****  ****    0 ROOT
