@<TRIPOS>MOLECULE
TO2
   46    47     1     0     0
SMALL
bcc


@<TRIPOS>ATOM
      1 CAA          1.9790     2.9170     1.9350 c3         1 TO2       0.121700
      2 CAB         -4.8060     1.1370    -2.2700 c3         1 TO2       0.122700
      3 CAC         -1.9800     2.1530     2.2170 c3         1 TO2       0.119700
      4 OAE         -0.4830    -3.7360     0.4400 oh         1 TO2      -0.576800
      5 CAF          3.5560     2.0490    -1.8590 ca         1 TO2      -0.129000
      6 CAG          3.3980     0.7740    -2.3620 ca         1 TO2      -0.125000
      7 CAH          3.0250     2.3760    -0.6120 ca         1 TO2      -0.185000
      8 CAI          2.7080    -0.1870    -1.6240 ca         1 TO2      -0.195000
      9 CAJ         -1.9850    -1.6940    -0.9700 ca         1 TO2      -0.124000
     10 CAK         -2.9410    -0.7830    -1.4190 ca         1 TO2      -0.192000
     11 CAL         -1.4750    -0.2470     0.8640 ca         1 TO2      -0.153000
     12 CAM          2.3110    -2.9840     0.3520 c3         1 TO2       0.121400
     13 OAN          1.7960     1.6470     1.3450 os         1 TO2      -0.300900
     14 OAQ          1.4800    -0.7160     0.4060 os         1 TO2      -0.291900
     15 CAR         -1.2440    -1.4360     0.1680 ca         1 TO2      -0.112300
     16 CAS          2.3370     1.4290     0.1310 ca         1 TO2       0.111100
     17 CAT         -3.1660     0.3990    -0.7350 ca         1 TO2       0.115100
     18 CAU         -2.4200     0.6660     0.4310 ca         1 TO2       0.109100
     19 CAV          2.1700     0.1260    -0.3860 ca         1 TO2       0.125100
     20 CAW         -0.1650    -2.3840     0.6480 c3         1 TO2       0.202400
     21 CAX          1.1840    -2.0340    -0.0120 c3         1 TO2       0.121100
     22 HAA          1.5140     3.7130     1.3480 h1         1 TO2       0.039033
     23 HAAA         1.5010     2.8760     2.9110 h1         1 TO2       0.039033
     24 HAAB         3.0370     3.1560     2.0720 h1         1 TO2       0.039033
     25 HAB         -4.1650     1.0560    -3.1520 h1         1 TO2       0.038367
     26 HABA        -5.4320     0.2420    -2.2100 h1         1 TO2       0.038367
     27 HABB        -5.4490     2.0060    -2.3840 h1         1 TO2       0.038367
     28 HAC         -2.3280     3.1310     2.5380 h1         1 TO2       0.040367
     29 HACA        -2.1620     1.4330     3.0190 h1         1 TO2       0.040367
     30 HACB        -0.9040     2.2030     2.0310 h1         1 TO2       0.040367
     31 HOAD         3.1600    -3.6320     1.9640 ho         1 TO2       0.404000
     32 HOAE        -0.4700    -3.9330    -0.5020 ho         1 TO2       0.394000
     33 HAF          4.0940     2.8010    -2.4210 ha         1 TO2       0.132000
     34 HAG          3.8100     0.5060    -3.3260 ha         1 TO2       0.130000
     35 HAH          3.1600     3.3800    -0.2340 ha         1 TO2       0.136000
     36 HAI          2.6040    -1.1810    -2.0370 ha         1 TO2       0.131000
     37 HAJ         -1.8510    -2.6040    -1.5410 ha         1 TO2       0.121000
     38 HAK         -3.5020    -1.0190    -2.3130 ha         1 TO2       0.134000
     39 HAL         -0.8950    -0.0450     1.7540 ha         1 TO2       0.152000
     40 HAM          3.2280    -2.6550    -0.1560 h1         1 TO2       0.025200
     41 HAMA         2.0750    -3.9750    -0.0530 h1         1 TO2       0.025200
     42 HAW         -0.0570    -2.2690     1.7300 h1         1 TO2       0.109700
     43 HAX          1.0400    -2.0830    -1.0990 h1         1 TO2       0.043700
     44 OAD          2.4700    -2.9990     1.7480 oh         1 TO2      -0.577800
     45 OAO         -4.0590     1.3430    -1.0900 os         1 TO2      -0.296900
     46 OAP         -2.7000     1.8330     1.0460 os         1 TO2      -0.300900
@<TRIPOS>BOND
     1     1    13 1   
     2     1    22 1   
     3     1    23 1   
     4     1    24 1   
     5     2    25 1   
     6     2    26 1   
     7     2    27 1   
     8     2    45 1   
     9     3    28 1   
    10     3    29 1   
    11     3    30 1   
    12     3    46 1   
    13     4    20 1   
    14     4    32 1   
    15     5     6 ar  
    16     5     7 ar  
    17     5    33 1   
    18     6     8 ar  
    19     6    34 1   
    20     7    16 ar  
    21     7    35 1   
    22     8    19 ar  
    23     8    36 1   
    24     9    10 ar  
    25     9    15 ar  
    26     9    37 1   
    27    10    17 ar  
    28    10    38 1   
    29    11    15 ar  
    30    11    18 ar  
    31    11    39 1   
    32    12    21 1   
    33    12    40 1   
    34    12    41 1   
    35    12    44 1   
    36    13    16 1   
    37    14    19 1   
    38    14    21 1   
    39    15    20 1   
    40    16    19 ar  
    41    17    18 ar  
    42    17    45 1   
    43    18    46 1   
    44    20    21 1   
    45    20    42 1   
    46    21    43 1   
    47    31    44 1   
@<TRIPOS>SUBSTRUCTURE
     1 TO2         1 TEMP              0 ****  ****    0 ROOT
