@<TRIPOS>MOLECULE
TO2
   46    47     1     0     0
SMALL
No Charge or Current Charge


@<TRIPOS>ATOM
      1 CAA          2.3490     3.3350     1.3910 c3         1 TO2       0.144900
      2 CAB         -4.9070     1.3480    -2.3170 c3         1 TO2       0.145900
      3 CAC         -3.1740     1.3320     3.0210 c3         1 TO2       0.142900
      4 OAE         -0.5510    -3.6200     0.3820 oh         1 TO2      -0.639000
      5 CAF          4.2680     1.7080    -2.1060 ca         1 TO2      -0.111000
      6 CAG          3.9490     0.4070    -2.5200 ca         1 TO2      -0.107000
      7 CAH          3.6580     2.2550    -0.9640 ca         1 TO2      -0.167000
      8 CAI          3.0210    -0.3580    -1.7940 ca         1 TO2      -0.177000
      9 CAJ         -1.7300    -1.3130    -1.1460 ca         1 TO2      -0.106000
     10 CAK         -2.7660    -0.4540    -1.5470 ca         1 TO2      -0.174000
     11 CAL         -1.9010    -0.4730     1.1290 ca         1 TO2      -0.135000
     12 CAM          2.3870    -2.7990     0.4200 c3         1 TO2       0.144600
     13 OAN          2.0990     2.0050     0.9040 os         1 TO2      -0.324100
     14 OAQ          1.4790    -0.5390     0.1050 os         1 TO2      -0.315100
     15 CAR         -1.2890    -1.3300     0.1920 ca         1 TO2      -0.112300
     16 CAS          2.7230     1.4950    -0.2240 ca         1 TO2       0.111100
     17 CAT         -3.3790     0.4080    -0.6100 ca         1 TO2       0.115100
     18 CAU         -2.9430     0.3990     0.7360 ca         1 TO2       0.109100
     19 CAV          2.4070     0.1770    -0.6370 ca         1 TO2       0.125100
     20 CAW         -0.1520    -2.2590     0.6270 c3         1 TO2       0.225600
     21 CAX          1.1890    -1.9440    -0.1010 c3         1 TO2       0.144300
     22 HAA          2.0820     4.0840     0.6350 h1         1 TO2       0.039033
     23 HAAA         1.7500     3.5290     2.2890 h1         1 TO2       0.039033
     24 HAAB         3.4070     3.4610     1.6550 h1         1 TO2       0.039033
     25 HAB         -4.1130     1.6460    -3.0140 h1         1 TO2       0.038367
     26 HABA        -5.3140     0.3810    -2.6380 h1         1 TO2       0.038367
     27 HABB        -5.7100     2.0920    -2.3780 h1         1 TO2       0.038367
     28 HAC         -3.7870     2.0750     3.5450 h1         1 TO2       0.040367
     29 HACA        -3.3150     0.3640     3.5180 h1         1 TO2       0.040367
     30 HACB        -2.1220     1.6300     3.1180 h1         1 TO2       0.040367
     31 HOAD         3.4330    -3.1140     2.0570 ho         1 TO2       0.443000
     32 HOAE        -1.4690    -3.7040     0.7170 ho         1 TO2       0.433000
     33 HAF          4.9870     2.2970    -2.6730 ha         1 TO2       0.114000
     34 HAG          4.4200    -0.0090    -3.4080 ha         1 TO2       0.112000
     35 HAH          3.9230     3.2670    -0.6720 ha         1 TO2       0.118000
     36 HAI          2.7920    -1.3580    -2.1490 ha         1 TO2       0.113000
     37 HAJ         -1.2700    -1.9710    -1.8800 ha         1 TO2       0.103000
     38 HAK         -3.0770    -0.4720    -2.5870 ha         1 TO2       0.116000
     39 HAL         -1.5510    -0.4890     2.1580 ha         1 TO2       0.134000
     40 HAM          3.2830    -2.5620    -0.1680 h1         1 TO2       0.025200
     41 HAMA         2.1660    -3.8600     0.2470 h1         1 TO2       0.025200
     42 HAW          0.0220    -2.1130     1.7040 h1         1 TO2       0.109700
     43 HAX          1.0380    -2.1520    -1.1670 h1         1 TO2       0.043700
     44 OAD          2.6470    -2.5730     1.8190 oh         1 TO2      -0.640000
     45 OAO         -4.4020     1.2690    -0.9720 os         1 TO2      -0.320100
     46 OAP         -3.5580     1.2560     1.6360 os         1 TO2      -0.324100
@<TRIPOS>BOND
     1     1    13 1   
     2     1    22 1   
     3     1    23 1   
     4     1    24 1   
     5     2    25 1   
     6     2    26 1   
     7     2    27 1   
     8     2    45 1   
     9     3    28 1   
    10     3    29 1   
    11     3    30 1   
    12     3    46 1   
    13     4    20 1   
    14     4    32 1   
    15     5     6 ar  
    16     5     7 ar  
    17     5    33 1   
    18     6     8 ar  
    19     6    34 1   
    20     7    16 ar  
    21     7    35 1   
    22     8    19 ar  
    23     8    36 1   
    24     9    10 ar  
    25     9    15 ar  
    26     9    37 1   
    27    10    17 ar  
    28    10    38 1   
    29    11    15 ar  
    30    11    18 ar  
    31    11    39 1   
    32    12    21 1   
    33    12    40 1   
    34    12    41 1   
    35    12    44 1   
    36    13    16 1   
    37    14    19 1   
    38    14    21 1   
    39    15    20 1   
    40    16    19 ar  
    41    17    18 ar  
    42    17    45 1   
    43    18    46 1   
    44    20    21 1   
    45    20    42 1   
    46    21    43 1   
    47    31    44 1   
@<TRIPOS>SUBSTRUCTURE
     1 TO2         1 TEMP              0 ****  ****    0 ROOT
