@<TRIPOS>MOLECULE
TO3
   47    49     1     0     0
SMALL
bcc


@<TRIPOS>ATOM
      1 C02        -27.9760     2.4020   -28.8610 c          1 TO3       0.671700
      2 C05        -29.0940     3.2090   -29.4380 ca         1 TO3      -0.136600
      3 C06        -30.4160     2.9800   -29.0670 ca         1 TO3      -0.095500
      4 C07        -31.4400     3.6840   -29.6770 ca         1 TO3      -0.118000
      5 C08        -31.1590     4.5960   -30.6890 ca         1 TO3      -0.087300
      6 C09        -32.2670     5.2360   -31.4790 c3         1 TO3       0.257100
      7 C11        -32.2220     3.2620   -33.0220 c3         1 TO3       0.273100
      8 C12        -31.9110     2.0080   -32.2440 ca         1 TO3      -0.207600
      9 C13        -30.6020     1.5880   -32.0490 ca         1 TO3       0.417200
     10 C15        -31.2410    -0.1790   -30.7610 ca         1 TO3       0.407200
     11 C16        -32.5830     0.1340   -30.9150 ca         1 TO3      -0.244300
     12 C17        -32.9200     1.2500   -31.6600 ca         1 TO3      -0.063000
     13 C20        -34.4450     5.6110   -34.1230 ca         1 TO3      -0.310500
     14 C21        -34.6280     5.0570   -35.3860 ca         1 TO3      -0.050000
     15 C22        -34.5560     5.8640   -36.4980 ca         1 TO3       0.090900
     16 C24        -34.3180     7.2230   -36.3760 ca         1 TO3       0.130900
     17 C26        -34.1370     7.7720   -35.1210 ca         1 TO3       0.058900
     18 C28        -34.2060     6.9680   -33.9960 ca         1 TO3       0.200900
     19 C31        -29.8340     4.8610   -31.0140 ca         1 TO3      -0.118000
     20 C32        -28.8020     4.1870   -30.3790 ca         1 TO3      -0.095500
     21 F23        -34.7230     5.3560   -37.7140 f          1 TO3      -0.108900
     22 F25        -34.2600     7.9960   -37.4470 f          1 TO3      -0.089900
     23 F27        -33.9050     9.0690   -34.9950 f          1 TO3      -0.096900
     24 F29        -34.0230     7.5430   -32.8160 f          1 TO3      -0.095900
     25 N03        -28.1310     1.0900   -29.1140 ns         1 TO3      -0.449400
     26 N10        -33.0110     4.2090   -32.2230 n3         1 TO3      -0.759500
     27 N14        -30.2670     0.5310   -31.3170 nb         1 TO3      -0.702000
     28 O01        -27.0370     2.8910   -28.2580 o          1 TO3      -0.568100
     29 O04        -27.2180     0.1880   -28.6570 oh         1 TO3      -0.375100
     30 O19        -35.2030     5.2630   -31.6300 o          1 TO3      -0.590300
     31 O30        -35.1240     3.2970   -33.1880 o          1 TO3      -0.590300
     32 S18        -34.5480     4.5360   -32.6970 sy         1 TO3       1.320200
     33 H1         -30.6490     2.2370   -28.3140 ha         1 TO3       0.148000
     34 H2         -32.4680     3.4850   -29.3990 ha         1 TO3       0.138500
     35 H3         -31.8370     5.9730   -32.1640 h1         1 TO3       0.067700
     36 H4         -32.9540     5.7500   -30.8100 h1         1 TO3       0.067700
     37 H5         -31.3030     3.7520   -33.3480 h1         1 TO3       0.060700
     38 H6         -32.7600     2.9990   -33.9330 h1         1 TO3       0.060700
     39 H7         -29.7820     2.1530   -32.4810 h4         1 TO3       0.017100
     40 H8         -30.9410    -1.0300   -30.1600 h4         1 TO3       0.025100
     41 H9         -33.3430    -0.4760   -30.4470 ha         1 TO3       0.150000
     42 H10        -33.9580     1.5340   -31.7720 ha         1 TO3       0.158000
     43 H11        -34.8300     4.0020   -35.5100 ha         1 TO3       0.188000
     44 H12        -29.6050     5.5780   -31.7930 ha         1 TO3       0.138500
     45 H13        -27.7750     4.3880   -30.6580 ha         1 TO3       0.148000
     46 H14        -28.7680     0.7550   -29.8380 hn         1 TO3       0.366500
     47 H15        -26.4590     0.2210   -29.2560 ho         1 TO3       0.390000
@<TRIPOS>BOND
     1     1     2 1   
     2     1    25 1   
     3     1    28 2   
     4     2     3 ar  
     5     2    20 ar  
     6     3     4 ar  
     7     3    33 1   
     8     4     5 ar  
     9     4    34 1   
    10     5     6 1   
    11     5    19 ar  
    12     6    26 1   
    13     6    35 1   
    14     6    36 1   
    15     7     8 1   
    16     7    26 1   
    17     7    37 1   
    18     7    38 1   
    19     8     9 ar  
    20     8    12 ar  
    21     9    27 ar  
    22     9    39 1   
    23    10    11 ar  
    24    10    27 ar  
    25    10    40 1   
    26    11    12 ar  
    27    11    41 1   
    28    12    42 1   
    29    13    14 ar  
    30    13    18 ar  
    31    13    32 1   
    32    14    15 ar  
    33    14    43 1   
    34    15    16 ar  
    35    15    21 1   
    36    16    17 ar  
    37    16    22 1   
    38    17    18 ar  
    39    17    23 1   
    40    18    24 1   
    41    19    20 ar  
    42    19    44 1   
    43    20    45 1   
    44    25    29 1   
    45    25    46 1   
    46    26    32 1   
    47    29    47 1   
    48    30    32 2   
    49    31    32 2   
@<TRIPOS>SUBSTRUCTURE
     1 TO3         1 TEMP              0 ****  ****    0 ROOT
