@<TRIPOS>MOLECULE
TO3
   47    49     1     0     0
SMALL
No Charge or Current Charge


@<TRIPOS>ATOM
      1 C02        -27.9770     2.1530   -28.8900 c          1 TO3       0.604700
      2 C05        -29.1460     2.8810   -29.5300 ca         1 TO3      -0.136600
      3 C06        -30.4660     2.7920   -29.0210 ca         1 TO3      -0.077500
      4 C07        -31.5220     3.4750   -29.6490 ca         1 TO3      -0.100000
      5 C08        -31.2920     4.2500   -30.8000 ca         1 TO3      -0.087300
      6 C09        -32.4520     4.9650   -31.4840 c3         1 TO3       0.257100
      7 C11        -32.9730     3.2210   -33.1830 c3         1 TO3       0.273100
      8 C12        -32.0430     2.0970   -32.7540 ca         1 TO3      -0.142300
      9 C13        -30.7920     1.9290   -33.3770 ca         1 TO3       0.351900
     10 C15        -30.2830     0.0920   -32.0600 ca         1 TO3       0.341900
     11 C16        -31.5130     0.1790   -31.3880 ca         1 TO3      -0.161000
     12 C17        -32.4170     1.1940   -31.7420 ca         1 TO3      -0.045000
     13 C20        -34.5600     5.7930   -33.8950 ca         1 TO3      -0.310500
     14 C21        -34.8290     5.2470   -35.1740 ca         1 TO3      -0.032000
     15 C22        -34.5320     5.9810   -36.3350 ca         1 TO3       0.126000
     16 C24        -33.9670     7.2640   -36.2340 ca         1 TO3       0.166000
     17 C26        -33.7020     7.8160   -34.9700 ca         1 TO3       0.094000
     18 C28        -33.9980     7.0860   -33.8020 ca         1 TO3       0.236000
     19 C31        -29.9830     4.3540   -31.3050 ca         1 TO3      -0.100000
     20 C32        -28.9240     3.6740   -30.6790 ca         1 TO3      -0.077500
     21 F23        -34.7930     5.4440   -37.5490 f          1 TO3      -0.144000
     22 F25        -33.6810     7.9690   -37.3550 f          1 TO3      -0.125000
     23 F27        -33.1570     9.0540   -34.8750 f          1 TO3      -0.132000
     24 F29        -33.7240     7.6460   -32.6010 f          1 TO3      -0.131000
     25 N03        -28.2440     1.4400   -27.7250 ns         1 TO3      -0.382400
     26 N10        -33.4780     4.0560   -32.0630 n3         1 TO3      -0.759500
     27 N14        -29.9220     0.9440   -33.0480 nb         1 TO3      -0.702000
     28 O01        -26.8530     2.1770   -29.3780 o          1 TO3      -0.568100
     29 O04        -27.1670     0.9190   -26.9060 oh         1 TO3      -0.414100
     30 O19        -35.2500     5.7210   -31.2990 o          1 TO3      -0.519500
     31 O30        -35.8910     3.7580   -32.7780 o          1 TO3      -0.519500
     32 S18        -34.9550     4.8300   -32.4250 sy         1 TO3       1.178600
     33 H1         -30.6970     2.1910   -28.1460 ha         1 TO3       0.130000
     34 H2         -32.5310     3.3860   -29.2520 ha         1 TO3       0.120500
     35 H3         -32.0510     5.6280   -32.2630 h1         1 TO3       0.067700
     36 H4         -32.8940     5.6160   -30.7190 h1         1 TO3       0.067700
     37 H5         -32.4690     3.8520   -33.9290 h1         1 TO3       0.060700
     38 H6         -33.8060     2.7320   -33.7060 h1         1 TO3       0.060700
     39 H7         -30.4710     2.6040   -34.1710 h4         1 TO3       0.017100
     40 H8         -29.5660    -0.6880   -31.8050 h4         1 TO3       0.025100
     41 H9         -31.7560    -0.5330   -30.6050 ha         1 TO3       0.132000
     42 H10        -33.3760     1.2890   -31.2360 ha         1 TO3       0.140000
     43 H11        -35.2710     4.2570   -35.2810 ha         1 TO3       0.170000
     44 H12        -29.7840     4.9520   -32.1910 ha         1 TO3       0.120500
     45 H13        -27.9240     3.7650   -31.0980 ha         1 TO3       0.130000
     46 H14        -29.1380     1.5720   -27.2570 hn         1 TO3       0.366500
     47 H15        -27.4220    -0.0220   -26.7590 ho         1 TO3       0.429000
@<TRIPOS>BOND
     1     1     2 1   
     2     1    25 1   
     3     1    28 2   
     4     2     3 ar  
     5     2    20 ar  
     6     3     4 ar  
     7     3    33 1   
     8     4     5 ar  
     9     4    34 1   
    10     5     6 1   
    11     5    19 ar  
    12     6    26 1   
    13     6    35 1   
    14     6    36 1   
    15     7     8 1   
    16     7    26 1   
    17     7    37 1   
    18     7    38 1   
    19     8     9 ar  
    20     8    12 ar  
    21     9    27 ar  
    22     9    39 1   
    23    10    11 ar  
    24    10    27 ar  
    25    10    40 1   
    26    11    12 ar  
    27    11    41 1   
    28    12    42 1   
    29    13    14 ar  
    30    13    18 ar  
    31    13    32 1   
    32    14    15 ar  
    33    14    43 1   
    34    15    16 ar  
    35    15    21 1   
    36    16    17 ar  
    37    16    22 1   
    38    17    18 ar  
    39    17    23 1   
    40    18    24 1   
    41    19    20 ar  
    42    19    44 1   
    43    20    45 1   
    44    25    29 1   
    45    25    46 1   
    46    26    32 1   
    47    29    47 1   
    48    30    32 2   
    49    31    32 2   
@<TRIPOS>SUBSTRUCTURE
     1 TO3         1 TEMP              0 ****  ****    0 ROOT
