@<TRIPOS>MOLECULE
TO4
   49    48     1     0     0
SMALL
abcg2


@<TRIPOS>ATOM
      1 P1           4.3230     0.2950     0.3780 p5         1 TO4       1.531800
      2 O1           4.4870     0.0980     1.8340 o          1 TO4      -0.713000
      3 O2           5.4750    -0.2630    -0.5600 os         1 TO4      -0.633400
      4 CM           6.8750    -0.2420    -0.1570 c3         1 TO4       0.240300
      5 CM2          7.2690    -1.6360     0.2810 c3         1 TO4      -0.109600
      6 CM1          7.6750     0.2610    -1.3380 c3         1 TO4      -0.109600
      7 C1           2.8120    -0.2950    -0.3800 c3         1 TO4      -0.457400
      8 C2           1.5580     0.2980     0.2640 c3         1 TO4      -0.050400
      9 C3           0.2880    -0.2820    -0.3460 c3         1 TO4      -0.070400
     10 C4          -0.9770     0.3050     0.2670 c3         1 TO4      -0.076400
     11 C5          -2.2540    -0.2670    -0.3340 c3         1 TO4      -0.073400
     12 C6          -3.5190     0.3280     0.2700 c3         1 TO4      -0.074400
     13 C7          -4.7990    -0.2350    -0.3350 c3         1 TO4      -0.073400
     14 C8          -6.0620     0.3650     0.2680 c3         1 TO4      -0.075400
     15 C9          -7.3410    -0.1820    -0.3520 c3         1 TO4      -0.071400
     16 C10         -8.6050     0.4130     0.2700 c3         1 TO4      -0.045200
     17 C11         -9.8510    -0.0610    -0.4060 c2         1 TO4      -0.215200
     18 C12        -10.7970    -0.8010     0.1600 c2         1 TO4      -0.320000
     19 H2           6.9980     0.4490     0.6810 h1         1 TO4       0.047700
     20 H3           7.1480    -2.3520    -0.5340 hc         1 TO4       0.050367
     21 H4           8.3160    -1.6440     0.5840 hc         1 TO4       0.050367
     22 H5           6.6730    -1.9680     1.1300 hc         1 TO4       0.050367
     23 H6           7.3560     1.2590    -1.6390 hc         1 TO4       0.050367
     24 H7           8.7290     0.3160    -1.0650 hc         1 TO4       0.050367
     25 H8           7.5850    -0.4090    -2.1940 hc         1 TO4       0.050367
     26 H9           2.8420    -0.0800    -1.4500 hc         1 TO4       0.086700
     27 H10          2.8120    -1.3840    -0.2740 hc         1 TO4       0.086700
     28 H11          1.5660     0.1040     1.3390 hc         1 TO4       0.051200
     29 H12          1.5540     1.3840     0.1420 hc         1 TO4       0.051200
     30 H13          0.2890    -0.1040    -1.4260 hc         1 TO4       0.039700
     31 H14          0.2880    -1.3700    -0.2160 hc         1 TO4       0.039700
     32 H15         -0.9720     0.1290     1.3480 hc         1 TO4       0.039700
     33 H16         -0.9700     1.3930     0.1380 hc         1 TO4       0.039700
     34 H17         -2.2540    -0.0960    -1.4170 hc         1 TO4       0.037200
     35 H18         -2.2640    -1.3540    -0.2010 hc         1 TO4       0.037200
     36 H19         -3.5210     0.1550     1.3520 hc         1 TO4       0.038200
     37 H20         -3.5050     1.4160     0.1400 hc         1 TO4       0.038200
     38 H21         -4.7950    -0.0610    -1.4160 hc         1 TO4       0.037200
     39 H22         -4.8150    -1.3220    -0.2040 hc         1 TO4       0.037200
     40 H23         -6.0730     0.1810     1.3480 hc         1 TO4       0.037200
     41 H24         -6.0410     1.4540     0.1480 hc         1 TO4       0.037200
     42 H25         -7.3360     0.0160    -1.4290 hc         1 TO4       0.039700
     43 H26         -7.3660    -1.2710    -0.2440 hc         1 TO4       0.039700
     44 H27         -8.6410     0.1710     1.3360 hc         1 TO4       0.044200
     45 H28         -8.5500     1.5050     0.1980 hc         1 TO4       0.044200
     46 H29         -9.9610     0.2210    -1.4510 ha         1 TO4       0.164000
     47 H30        -10.7330    -1.1120     1.1970 ha         1 TO4       0.160500
     48 H31        -11.6720    -1.1240    -0.3900 ha         1 TO4       0.160500
     49 F1           4.3190     1.8570     0.0290 f          1 TO4      -0.338400
@<TRIPOS>BOND
     1     1     2 2   
     2     1     3 1   
     3     1     7 1   
     4     1    49 1   
     5     3     4 1   
     6     4     5 1   
     7     4     6 1   
     8     4    19 1   
     9     5    20 1   
    10     5    21 1   
    11     5    22 1   
    12     6    23 1   
    13     6    24 1   
    14     6    25 1   
    15     7     8 1   
    16     7    26 1   
    17     7    27 1   
    18     8     9 1   
    19     8    28 1   
    20     8    29 1   
    21     9    10 1   
    22     9    30 1   
    23     9    31 1   
    24    10    11 1   
    25    10    32 1   
    26    10    33 1   
    27    11    12 1   
    28    11    34 1   
    29    11    35 1   
    30    12    13 1   
    31    12    36 1   
    32    12    37 1   
    33    13    14 1   
    34    13    38 1   
    35    13    39 1   
    36    14    15 1   
    37    14    40 1   
    38    14    41 1   
    39    15    16 1   
    40    15    42 1   
    41    15    43 1   
    42    16    17 1   
    43    16    44 1   
    44    16    45 1   
    45    17    18 2   
    46    17    46 1   
    47    18    47 1   
    48    18    48 1   
@<TRIPOS>SUBSTRUCTURE
     1 TO4         1 TEMP              0 ****  ****    0 ROOT
