@<TRIPOS>MOLECULE
TO4
   49    48     1     0     0
SMALL
No Charge or Current Charge


@<TRIPOS>ATOM
      1 P1           4.4580    -0.1270     0.5790 p5         1 TO4       1.531800
      2 O1           4.6150    -0.8110     1.9010 o          1 TO4      -0.713000
      3 O2           5.5460    -0.4970    -0.5640 os         1 TO4      -0.633400
      4 CM           6.8880     0.0100    -0.5590 c3         1 TO4       0.240300
      5 CM2          7.6360    -0.4700     0.7050 c3         1 TO4      -0.109600
      6 CM1          7.5410    -0.4950    -1.8560 c3         1 TO4      -0.109600
      7 C1           2.8640    -0.4290    -0.2860 c3         1 TO4      -0.457400
      8 C2           1.5830    -0.0220     0.4850 c3         1 TO4      -0.050400
      9 C3           0.2950    -0.3120    -0.3140 c3         1 TO4      -0.070400
     10 C4          -0.9900     0.0910     0.4430 c3         1 TO4      -0.076400
     11 C5          -2.2790    -0.2000    -0.3580 c3         1 TO4      -0.073400
     12 C6          -3.5640     0.2030     0.3990 c3         1 TO4      -0.074400
     13 C7          -4.8520    -0.0880    -0.4010 c3         1 TO4      -0.073400
     14 C8          -6.1370     0.3140     0.3550 c3         1 TO4      -0.075400
     15 C9          -7.4260     0.0240    -0.4450 c3         1 TO4      -0.071400
     16 C10         -8.7120     0.4250     0.3090 c3         1 TO4      -0.045200
     17 C11         -9.9620     0.1280    -0.4940 c2         1 TO4      -0.215200
     18 C12        -10.9170    -0.7470    -0.1430 c2         1 TO4      -0.320000
     19 H2           6.8900     1.1090    -0.5780 h1         1 TO4       0.047700
     20 H3           7.5330    -1.5540     0.8330 hc         1 TO4       0.050367
     21 H4           8.7050    -0.2390     0.6230 hc         1 TO4       0.050367
     22 H5           7.2650     0.0310     1.6060 hc         1 TO4       0.050367
     23 H6           6.9810    -0.1420    -2.7300 hc         1 TO4       0.050367
     24 H7           8.5700    -0.1250    -1.9390 hc         1 TO4       0.050367
     25 H8           7.5650    -1.5910    -1.8790 hc         1 TO4       0.050367
     26 H9           2.9370     0.1170    -1.2320 hc         1 TO4       0.086700
     27 H10          2.8550    -1.5010    -0.5120 hc         1 TO4       0.086700
     28 H11          1.5430    -0.5610     1.4400 hc         1 TO4       0.051200
     29 H12          1.6240     1.0490     0.7240 hc         1 TO4       0.051200
     30 H13          0.3350     0.2280    -1.2690 hc         1 TO4       0.039700
     31 H14          0.2530    -1.3820    -0.5520 hc         1 TO4       0.039700
     32 H15         -1.0300    -0.4490     1.3970 hc         1 TO4       0.039700
     33 H16         -0.9480     1.1610     0.6810 hc         1 TO4       0.039700
     34 H17         -2.2390     0.3400    -1.3120 hc         1 TO4       0.037200
     35 H18         -2.3210    -1.2700    -0.5960 hc         1 TO4       0.037200
     36 H19         -3.6030    -0.3370     1.3540 hc         1 TO4       0.038200
     37 H20         -3.5210     1.2730     0.6370 hc         1 TO4       0.038200
     38 H21         -4.8130     0.4520    -1.3560 hc         1 TO4       0.037200
     39 H22         -4.8950    -1.1580    -0.6390 hc         1 TO4       0.037200
     40 H23         -6.1770    -0.2250     1.3100 hc         1 TO4       0.037200
     41 H24         -6.0950     1.3850     0.5930 hc         1 TO4       0.037200
     42 H25         -7.3870     0.5620    -1.4000 hc         1 TO4       0.039700
     43 H26         -7.4700    -1.0470    -0.6820 hc         1 TO4       0.039700
     44 H27         -8.7410    -0.1060     1.2690 hc         1 TO4       0.044200
     45 H28         -8.6710     1.4950     0.5460 hc         1 TO4       0.044200
     46 H29        -10.0500     0.7000    -1.4210 ha         1 TO4       0.164000
     47 H30        -10.8550    -1.3300     0.7770 ha         1 TO4       0.160500
     48 H31        -11.7970    -0.9110    -0.7680 ha         1 TO4       0.160500
     49 F1           4.5360     1.4840     0.6620 f          1 TO4      -0.338400
@<TRIPOS>BOND
     1     1     2 2   
     2     1     3 1   
     3     1     7 1   
     4     1    49 1   
     5     3     4 1   
     6     4     5 1   
     7     4     6 1   
     8     4    19 1   
     9     5    20 1   
    10     5    21 1   
    11     5    22 1   
    12     6    23 1   
    13     6    24 1   
    14     6    25 1   
    15     7     8 1   
    16     7    26 1   
    17     7    27 1   
    18     8     9 1   
    19     8    28 1   
    20     8    29 1   
    21     9    10 1   
    22     9    30 1   
    23     9    31 1   
    24    10    11 1   
    25    10    32 1   
    26    10    33 1   
    27    11    12 1   
    28    11    34 1   
    29    11    35 1   
    30    12    13 1   
    31    12    36 1   
    32    12    37 1   
    33    13    14 1   
    34    13    38 1   
    35    13    39 1   
    36    14    15 1   
    37    14    40 1   
    38    14    41 1   
    39    15    16 1   
    40    15    42 1   
    41    15    43 1   
    42    16    17 1   
    43    16    44 1   
    44    16    45 1   
    45    17    18 2   
    46    17    46 1   
    47    18    47 1   
    48    18    48 1   
@<TRIPOS>SUBSTRUCTURE
     1 TO4         1 TEMP              0 ****  ****    0 ROOT
