@<TRIPOS>MOLECULE
TO5
   34    36     1     0     0
SMALL
abcg2


@<TRIPOS>ATOM
      1 C1          30.3530    53.9020    11.7060 c3         1 TO5       0.208600
      2 C2          31.7580    53.2680    13.6420 cc         1 TO5       0.789800
      3 C3          33.2410    52.1110    15.0180 c          1 TO5       0.728400
      4 C7          32.9660    48.8570    18.7110 ca         1 TO5       0.341900
      5 C8          32.3090    49.3440    16.5890 ca         1 TO5       0.353900
      6 C9          30.8930    52.1330    15.6110 ca         1 TO5       0.142600
      7 C10         29.8700    51.8000    16.5040 ca         1 TO5      -0.170000
      8 C11         28.6490    52.4280    16.3850 ca         1 TO5       0.180000
      9 C12         28.4140    53.4070    15.4250 ca         1 TO5      -0.157000
     10 C13         29.4180    53.6990    14.5290 ca         1 TO5      -0.031000
     11 C14         30.6490    53.0350    14.5620 ca         1 TO5      -0.274900
     12 CL          27.3880    52.0120    17.4870 cl         1 TO5      -0.184000
     13 N           31.5890    53.9020    12.4720 nh         1 TO5      -0.733600
     14 C           32.7600    54.3050    11.7150 c3         1 TO5       0.208600
     15 N2          32.1610    51.6220    15.7630 n          1 TO5      -0.244200
     16 O           34.3710    51.7750    15.3280 o          1 TO5      -0.517000
     17 N1          32.9740    52.8880    13.9470 nd         1 TO5      -0.764100
     18 C4          32.4510    50.7050    16.8090 ca         1 TO5      -0.018400
     19 N3          32.5590    48.4330    17.5200 nb         1 TO5      -0.660000
     20 C6          33.1360    50.1980    19.0270 ca         1 TO5      -0.159000
     21 C5          32.8720    51.1460    18.0530 ca         1 TO5      -0.054000
     22 H1          29.6550    53.1540    12.0700 h1         1 TO5       0.049033
     23 H2          29.8680    54.8790    11.7070 h1         1 TO5       0.049033
     24 H3          30.5900    53.6440    10.6740 h1         1 TO5       0.049033
     25 H5          31.9770    48.9860    15.6200 h4         1 TO5       0.029100
     26 H6          30.0350    51.0810    17.2930 ha         1 TO5       0.147000
     27 H7          27.4700    53.9300    15.3820 ha         1 TO5       0.137000
     28 H8          29.2360    54.4800    13.8060 ha         1 TO5       0.123000
     29 H9          33.5340    54.6900    12.3720 h1         1 TO5       0.049033
     30 H10         33.1760    53.4760    11.1380 h1         1 TO5       0.049033
     31 H11         32.4660    55.0940    11.0250 h1         1 TO5       0.049033
     32 H12         33.4710    50.4880    20.0130 ha         1 TO5       0.128000
     33 H13         32.9870    52.2040    18.2520 ha         1 TO5       0.132000
     34 H4          33.1680    48.0940    19.4530 h4         1 TO5       0.022100
@<TRIPOS>BOND
     1     1    13 1   
     2     1    22 1   
     3     1    23 1   
     4     1    24 1   
     5     2    11 1   
     6     2    13 1   
     7     2    17 2   
     8     3    15 1   
     9     3    16 2   
    10     3    17 1   
    11     4    19 ar  
    12     4    20 ar  
    13     4    34 1   
    14     5    18 ar  
    15     5    19 ar  
    16     5    25 1   
    17     6     7 ar  
    18     6    11 ar  
    19     6    15 1   
    20     7     8 ar  
    21     7    26 1   
    22     8     9 ar  
    23     8    12 1   
    24     9    10 ar  
    25     9    27 1   
    26    10    11 ar  
    27    10    28 1   
    28    13    14 1   
    29    14    29 1   
    30    14    30 1   
    31    14    31 1   
    32    15    18 1   
    33    18    21 ar  
    34    20    21 ar  
    35    20    32 1   
    36    21    33 1   
@<TRIPOS>SUBSTRUCTURE
     1 TO5         1 TEMP              0 ****  ****    0 ROOT
