@<TRIPOS>MOLECULE
TO5
   34    36     1     0     0
SMALL
No Charge or Current Charge


@<TRIPOS>ATOM
      1 C1          30.3910    53.6430    11.5130 c3         1 TO5       0.208600
      2 C2          31.7330    53.1130    13.5200 cc         1 TO5       0.789800
      3 C3          33.0510    51.4720    14.5590 c          1 TO5       0.728400
      4 C7          33.1450    48.8750    18.8900 ca         1 TO5       0.341900
      5 C8          32.9100    49.1760    16.6030 ca         1 TO5       0.353900
      6 C9          30.9090    52.1220    15.6160 ca         1 TO5       0.142600
      7 C10         29.8910    51.9630    16.5850 ca         1 TO5      -0.170000
      8 C11         28.7620    52.7910    16.5790 ca         1 TO5       0.180000
      9 C12         28.6240    53.7810    15.6020 ca         1 TO5      -0.157000
     10 C13         29.5960    53.9140    14.6010 ca         1 TO5      -0.031000
     11 C14         30.7240    53.0560    14.5790 ca         1 TO5      -0.274900
     12 Cl          27.5200    52.5900    17.8060 cl         1 TO5      -0.184000
     13 N           31.5100    53.9270    12.4360 nh         1 TO5      -0.733600
     14 C           32.6130    54.7360    11.8790 c3         1 TO5       0.208600
     15 N2          32.1110    51.3210    15.6040 n          1 TO5      -0.244200
     16 O           34.1000    50.8510    14.5270 o          1 TO5      -0.517000
     17 N1          32.8070    52.3750    13.5310 nd         1 TO5      -0.764100
     18 C4          32.4290    50.5010    16.7590 ca         1 TO5      -0.018400
     19 N3          33.2510    48.3710    17.6400 nb         1 TO5      -0.660000
     20 C6          32.7070    50.1830    19.1470 ca         1 TO5      -0.159000
     21 C5          32.3510    51.0140    18.0720 ca         1 TO5      -0.054000
     22 H1          29.7280    52.8670    11.9210 h1         1 TO5       0.049033
     23 H2          29.7960    54.5500    11.3420 h1         1 TO5       0.049033
     24 H3          30.7710    53.2900    10.5450 h1         1 TO5       0.049033
     25 H5          32.9990    48.7320    15.6130 h4         1 TO5       0.029100
     26 H6          29.9440    51.1910    17.3440 ha         1 TO5       0.147000
     27 H7          27.7540    54.4330    15.6090 ha         1 TO5       0.137000
     28 H8          29.4580    54.6860    13.8470 ha         1 TO5       0.123000
     29 H9          33.2490    55.1300    12.6840 h1         1 TO5       0.049033
     30 H10         33.2370    54.1280    11.2100 h1         1 TO5       0.049033
     31 H11         32.2190    55.5880    11.3090 h1         1 TO5       0.049033
     32 H12         32.6560    50.5470    20.1700 ha         1 TO5       0.128000
     33 H13         32.0410    52.0410    18.2570 ha         1 TO5       0.132000
     34 H4          33.4280    48.2120    19.7070 h4         1 TO5       0.022100
@<TRIPOS>BOND
     1     1    13 1   
     2     1    22 1   
     3     1    23 1   
     4     1    24 1   
     5     2    11 1   
     6     2    13 1   
     7     2    17 2   
     8     3    15 1   
     9     3    16 2   
    10     3    17 1   
    11     4    19 ar  
    12     4    20 ar  
    13     4    34 1   
    14     5    18 ar  
    15     5    19 ar  
    16     5    25 1   
    17     6     7 ar  
    18     6    11 ar  
    19     6    15 1   
    20     7     8 ar  
    21     7    26 1   
    22     8     9 ar  
    23     8    12 1   
    24     9    10 ar  
    25     9    27 1   
    26    10    11 ar  
    27    10    28 1   
    28    13    14 1   
    29    14    29 1   
    30    14    30 1   
    31    14    31 1   
    32    15    18 1   
    33    18    21 ar  
    34    20    21 ar  
    35    20    32 1   
    36    21    33 1   
@<TRIPOS>SUBSTRUCTURE
     1 TO5         1 TEMP              0 ****  ****    0 ROOT
