@<TRIPOS>MOLECULE
TO6
   32    33     1     0     0
SMALL
abcg2


@<TRIPOS>ATOM
      1 C01        -22.0620    13.0760   -17.0420 c3         1 TO6       0.141900
      2 C03        -22.4690    12.8860   -14.7180 ca         1 TO6       0.104100
      3 C04        -22.6210    12.0220   -13.6090 ca         1 TO6       0.147100
      4 C06        -22.9040    12.5560   -12.3610 ca         1 TO6      -0.197000
      5 C07        -23.0320    13.9240   -12.1980 ca         1 TO6      -0.060000
      6 C08        -22.8680    14.7950   -13.2770 ca         1 TO6      -0.101800
      7 C09        -22.5910    14.2470   -14.5440 ca         1 TO6      -0.132000
      8 C10        -22.9990    16.2010   -12.9890 ce         1 TO6      -0.017200
      9 C11        -22.7590    17.3080   -13.7350 cf         1 TO6      -0.001900
     10 C12        -22.3000    17.2660   -15.0820 ch         1 TO6       0.286700
     11 C14        -22.9330    18.6500   -13.1920 cd         1 TO6      -0.015800
     12 C17        -23.1060    20.5350   -12.0020 cc         1 TO6       0.529900
     13 C18        -22.8520    19.1390   -11.8860 cc         1 TO6      -0.201000
     14 C19        -22.5110    18.4480   -10.7140 cg         1 TO6       0.369000
     15 N13        -21.9250    17.2950   -16.1720 n1         1 TO6      -0.457000
     16 N15        -23.1930    19.7150   -13.9470 na         1 TO6       0.017800
     17 N16        -23.3150    20.8610   -13.2590 nd         1 TO6      -0.575800
     18 N20        -22.2310    17.9040    -9.7340 n1         1 TO6      -0.480000
     19 N21        -23.0700    21.4550   -10.9960 nv         1 TO6      -1.018900
     20 O02        -22.2130    12.2760   -15.8860 os         1 TO6      -0.320100
     21 O05        -22.4870    10.7150   -13.8440 oh         1 TO6      -0.503100
     22 H1         -21.8580    12.3940   -17.8630 h1         1 TO6       0.045033
     23 H2         -22.9720    13.6390   -17.2690 h1         1 TO6       0.045033
     24 H3         -21.2280    13.7760   -16.9480 h1         1 TO6       0.045033
     25 H4         -23.0260    11.8960   -11.5110 ha         1 TO6       0.123000
     26 H5         -23.2530    14.3190   -11.2140 ha         1 TO6       0.123000
     27 H6         -22.4870    14.8910   -15.4030 ha         1 TO6       0.130000
     28 H7         -23.3480    16.3950   -11.9820 ha         1 TO6       0.192000
     29 H9         -23.4890    22.3450   -11.2220 hn         1 TO6       0.464500
     30 H10        -23.3530    21.1250   -10.0860 hn         1 TO6       0.464500
     31 H11        -22.6100    10.2080   -13.0320 ho         1 TO6       0.467000
     32 H8         -23.3550    19.7280   -14.9430 hn         1 TO6       0.385000
@<TRIPOS>BOND
     1     1    20 1   
     2     1    22 1   
     3     1    23 1   
     4     1    24 1   
     5     2     3 ar  
     6     2     7 ar  
     7     2    20 1   
     8     3     4 ar  
     9     3    21 1   
    10     4     5 ar  
    11     4    25 1   
    12     5     6 ar  
    13     5    26 1   
    14     6     7 ar  
    15     6     8 1   
    16     7    27 1   
    17     8     9 2   
    18     8    28 1   
    19     9    10 1   
    20     9    11 1   
    21    10    15 3   
    22    11    13 2   
    23    11    16 1   
    24    12    13 1   
    25    12    17 2   
    26    12    19 1   
    27    13    14 1   
    28    14    18 3   
    29    16    17 1   
    30    16    32 1   
    31    19    29 1   
    32    19    30 1   
    33    21    31 1   
@<TRIPOS>SUBSTRUCTURE
     1 TO6         1 TEMP              0 ****  ****    0 ROOT
