@<TRIPOS>MOLECULE
TO6
   32    33     1     0     0
SMALL
No Charge or Current Charge


@<TRIPOS>ATOM
      1 C01        -22.5310    13.1330   -17.2320 c3         1 TO6       0.141900
      2 C03        -22.5950    12.8530   -14.7710 ca         1 TO6       0.104100
      3 C04        -22.5250    11.9800   -13.6570 ca         1 TO6       0.147100
      4 C06        -22.6350    12.4930   -12.3540 ca         1 TO6      -0.197000
      5 C07        -22.8080    13.8720   -12.1490 ca         1 TO6      -0.060000
      6 C08        -22.8650    14.7540   -13.2430 ca         1 TO6      -0.101800
      7 C09        -22.7720    14.2400   -14.5540 ca         1 TO6      -0.132000
      8 C10        -23.0600    16.2120   -12.9910 ce         1 TO6      -0.017200
      9 C11        -22.4210    17.2950   -13.5290 cf         1 TO6      -0.001900
     10 C12        -21.3980    17.1280   -14.5170 ch         1 TO6       0.286700
     11 C14        -22.7720    18.6700   -13.1630 cd         1 TO6      -0.015800
     12 C17        -23.2220    20.5570   -12.1080 cc         1 TO6       0.529900
     13 C18        -22.8340    19.2300   -11.9170 cc         1 TO6      -0.201000
     14 C19        -22.5510    18.6310   -10.6610 cg         1 TO6       0.369000
     15 N13        -20.5750    17.0320   -15.3410 n1         1 TO6      -0.457000
     16 N15        -23.1380    19.7210   -14.0250 na         1 TO6       0.017800
     17 N16        -23.4210    20.9110   -13.3420 nd         1 TO6      -0.575800
     18 N20        -22.3300    18.1110    -9.6400 n1         1 TO6      -0.480000
     19 N21        -23.3970    21.4560   -11.1260 nv         1 TO6      -1.018900
     20 O02        -22.4910    12.3190   -16.0460 os         1 TO6      -0.320100
     21 O05        -22.3550    10.6330   -13.8300 oh         1 TO6      -0.503100
     22 H1         -22.4220    12.5070   -18.1260 h1         1 TO6       0.045033
     23 H2         -23.4870    13.6680   -17.3070 h1         1 TO6       0.045033
     24 H3         -21.7150    13.8670   -17.2290 h1         1 TO6       0.045033
     25 H4         -22.5870    11.8290   -11.4940 ha         1 TO6       0.123000
     26 H5         -22.8900    14.2570   -11.1340 ha         1 TO6       0.123000
     27 H6         -22.8510    14.9240   -15.3930 ha         1 TO6       0.130000
     28 H7         -23.8210    16.4160   -12.2360 ha         1 TO6       0.192000
     29 H9         -23.8860    22.3090   -11.3780 hn         1 TO6       0.464500
     30 H10        -23.5270    21.1170   -10.1780 hn         1 TO6       0.464500
     31 H11        -22.3330    10.2060   -12.9480 ho         1 TO6       0.467000
     32 H8         -23.2050    19.6610   -15.0410 hn         1 TO6       0.385000
@<TRIPOS>BOND
     1     1    20 1   
     2     1    22 1   
     3     1    23 1   
     4     1    24 1   
     5     2     3 ar  
     6     2     7 ar  
     7     2    20 1   
     8     3     4 ar  
     9     3    21 1   
    10     4     5 ar  
    11     4    25 1   
    12     5     6 ar  
    13     5    26 1   
    14     6     7 ar  
    15     6     8 1   
    16     7    27 1   
    17     8     9 2   
    18     8    28 1   
    19     9    10 1   
    20     9    11 1   
    21    10    15 3   
    22    11    13 2   
    23    11    16 1   
    24    12    13 1   
    25    12    17 2   
    26    12    19 1   
    27    13    14 1   
    28    14    18 3   
    29    16    17 1   
    30    16    32 1   
    31    19    29 1   
    32    19    30 1   
    33    21    31 1   
@<TRIPOS>SUBSTRUCTURE
     1 TO6         1 TEMP              0 ****  ****    0 ROOT
