@<TRIPOS>MOLECULE
TO7
   43    46     1     0     0
SMALL
No Charge or Current Charge


@<TRIPOS>ATOM
      1 C1          51.2050   -17.2190   -15.8200 ca         1 TO7      -0.077000
      2 C5          51.4290   -15.7210   -13.8910 ca         1 TO7      -0.082600
      3 C4          49.4760   -17.1930   -14.1120 ca         1 TO7      -0.058000
      4 C3          51.9170   -16.2350   -15.1150 ca         1 TO7      -0.098000
      5 C2          49.9850   -17.6960   -15.3190 ca         1 TO7      -0.113000
      6 C6          50.1890   -16.2100   -13.3880 ca         1 TO7      -0.140200
      7 C7          53.6470   -14.7350   -13.1200 cc         1 TO7      -0.480600
      8 C8          54.5030   -13.6890   -13.2730 cd         1 TO7       0.713900
      9 O1          48.4080   -15.5890   -12.0000 o          1 TO7      -0.391000
     10 O3          50.3950   -15.7230   -11.1070 o          1 TO7      -0.391000
     11 O2          51.6110   -13.5710   -12.8730 o          1 TO7      -0.584100
     12 C10         52.1830   -14.6070   -13.1910 c          1 TO7       0.657300
     13 N4          49.6350   -15.7340   -12.0840 no         1 TO7       0.695200
     14 S1          54.5360   -16.2360   -13.2170 ss         1 TO7      -0.094400
     15 C9          55.9650   -15.2520   -13.4230 cc         1 TO7       0.783300
     16 N1          55.8190   -13.9550   -13.4370 nd         1 TO7      -0.828000
     17 N2          54.2240   -12.4040   -13.3250 nv         1 TO7      -1.047900
     18 N3          57.2240   -15.7030   -13.5830 nu         1 TO7      -0.907100
     19 C17         57.5430   -17.1110   -13.9010 c5         1 TO7       0.229500
     20 C16         57.8350   -17.7760   -12.5120 c5         1 TO7      -0.096700
     21 C13         59.3090   -17.3930   -12.2210 c5         1 TO7      -0.082400
     22 C12         57.9810   -19.3020   -12.8090 c5         1 TO7      -0.078400
     23 C14         58.9520   -17.0850   -14.5850 c5         1 TO7      -0.085400
     24 C15         59.8380   -17.8960   -13.5800 c5         1 TO7      -0.077700
     25 C11         59.3310   -19.3780   -13.5980 c5         1 TO7      -0.080400
     26 H1          51.5940   -17.6030   -16.7610 ha         1 TO7       0.123000
     27 H2          48.5320   -17.5800   -13.7320 ha         1 TO7       0.147000
     28 H3          52.8430   -15.8530   -15.5400 ha         1 TO7       0.134000
     29 H4          49.4330   -18.4570   -15.8680 ha         1 TO7       0.126000
     30 H5          54.9180   -11.8310   -13.7840 hn         1 TO7       0.517000
     31 H6          53.2490   -12.1550   -13.4450 hn         1 TO7       0.517000
     32 H7          57.8570   -14.9410   -13.7920 hn         1 TO7       0.508000
     33 H8          56.7720   -17.6270   -14.4940 h1         1 TO7       0.069700
     34 H9          57.1150   -17.5410   -11.7200 hc         1 TO7       0.085700
     35 H10         59.7360   -17.9250   -11.3630 hc         1 TO7       0.055200
     36 H11         59.4630   -16.3180   -12.0650 hc         1 TO7       0.055200
     37 H12         57.1370   -19.7060   -13.3810 hc         1 TO7       0.049700
     38 H13         58.0390   -19.8810   -11.8800 hc         1 TO7       0.049700
     39 H14         58.9280   -17.5470   -15.5780 hc         1 TO7       0.054700
     40 H15         59.3510   -16.0730   -14.7270 hc         1 TO7       0.054700
     41 H16         60.9180   -17.7840   -13.7350 hc         1 TO7       0.072700
     42 H17         59.2010   -19.7660   -14.6150 hc         1 TO7       0.047200
     43 H18         60.0390   -20.0440   -13.0930 hc         1 TO7       0.047200
@<TRIPOS>BOND
     1     1     4 ar  
     2     1     5 ar  
     3     1    26 1   
     4     2     4 ar  
     5     2     6 ar  
     6     2    12 1   
     7     3     5 ar  
     8     3     6 ar  
     9     3    27 1   
    10     4    28 1   
    11     5    29 1   
    12     6    13 1   
    13     7     8 2   
    14     7    12 1   
    15     7    14 1   
    16     8    16 1   
    17     8    17 1   
    18     9    13 1   
    19    10    13 1   
    20    11    12 2   
    21    14    15 1   
    22    15    16 2   
    23    15    18 1   
    24    17    30 1   
    25    17    31 1   
    26    18    19 1   
    27    18    32 1   
    28    19    20 1   
    29    19    23 1   
    30    19    33 1   
    31    20    21 1   
    32    20    22 1   
    33    20    34 1   
    34    21    24 1   
    35    21    35 1   
    36    21    36 1   
    37    22    25 1   
    38    22    37 1   
    39    22    38 1   
    40    23    24 1   
    41    23    39 1   
    42    23    40 1   
    43    24    25 1   
    44    24    41 1   
    45    25    42 1   
    46    25    43 1   
@<TRIPOS>SUBSTRUCTURE
     1 TO7         1 TEMP              0 ****  ****    0 ROOT
