@<TRIPOS>MOLECULE
TO7
   43    46     1     0     0
SMALL
bcc


@<TRIPOS>ATOM
      1 C1          50.9840   -17.3250   -15.8880 ca         1 TO7      -0.095000
      2 C5          51.6050   -15.7590   -14.1540 ca         1 TO7      -0.082600
      3 C4          50.0320   -17.5580   -13.6990 ca         1 TO7      -0.076000
      4 C3          51.7000   -16.2140   -15.4640 ca         1 TO7      -0.116000
      5 C2          50.1510   -17.9980   -15.0070 ca         1 TO7      -0.131000
      6 C6          50.7610   -16.4530   -13.2910 ca         1 TO7      -0.140200
      7 C7          53.7070   -14.4930   -13.7580 cc         1 TO7      -0.401000
      8 C8          54.5600   -13.4050   -13.4930 cd         1 TO7       0.779200
      9 O1          49.6260   -16.2770   -11.3170 o          1 TO7      -0.201000
     10 O3          51.6210   -15.5190   -11.3950 o          1 TO7      -0.201000
     11 O2          51.6120   -13.4660   -13.5990 o          1 TO7      -0.584100
     12 C10         52.3000   -14.4720   -13.7900 c          1 TO7       0.657300
     13 N4          50.6590   -16.0470   -11.8980 no         1 TO7       0.315200
     14 S1          54.6900   -15.9350   -13.9660 ss         1 TO7      -0.239300
     15 C9          56.1020   -14.9510   -13.7080 cc         1 TO7       0.783300
     16 N1          55.8810   -13.6780   -13.4730 nd         1 TO7      -0.828000
     17 N2          54.1470   -12.1620   -13.2590 nv         1 TO7      -0.937500
     18 N3          57.3190   -15.4760   -13.7690 nu         1 TO7      -0.851900
     19 C17         57.5950   -16.8860   -13.9570 c5         1 TO7       0.229500
     20 C16         57.4430   -17.7180   -12.6680 c5         1 TO7      -0.096700
     21 C13         58.8220   -17.5490   -12.0230 c5         1 TO7      -0.082400
     22 C12         57.4630   -19.1970   -13.0750 c5         1 TO7      -0.078400
     23 C14         59.0790   -17.1160   -14.3410 c5         1 TO7      -0.085400
     24 C15         59.5870   -18.0630   -13.2470 c5         1 TO7      -0.077700
     25 C11         58.9450   -19.4400   -13.4630 c5         1 TO7      -0.080400
     26 H1          51.0750   -17.6610   -16.9120 ha         1 TO7       0.141000
     27 H2          49.3930   -18.0850   -13.0050 ha         1 TO7       0.165000
     28 H3          52.3320   -15.6830   -16.1640 ha         1 TO7       0.152000
     29 H4          49.5960   -18.8670   -15.3320 ha         1 TO7       0.144000
     30 H5          54.8170   -11.4260   -13.1190 hn         1 TO7       0.461800
     31 H6          53.1650   -11.9440   -13.2900 hn         1 TO7       0.461800
     32 H7          58.0820   -14.8470   -13.5620 hn         1 TO7       0.452800
     33 H8          56.9260   -17.2540   -14.7430 h1         1 TO7       0.069700
     34 H9          56.5770   -17.4330   -12.0680 hc         1 TO7       0.085700
     35 H10         58.9560   -18.1710   -11.1350 hc         1 TO7       0.055200
     36 H11         59.0620   -16.5160   -11.7600 hc         1 TO7       0.055200
     37 H12         56.7690   -19.4080   -13.8910 hc         1 TO7       0.049700
     38 H13         57.1660   -19.8240   -12.2340 hc         1 TO7       0.049700
     39 H14         59.1830   -17.5300   -15.3440 hc         1 TO7       0.054700
     40 H15         59.6340   -16.1740   -14.3260 hc         1 TO7       0.054700
     41 H16         60.6730   -18.0850   -13.1670 hc         1 TO7       0.072700
     42 H17         59.0600   -19.7880   -14.4910 hc         1 TO7       0.047200
     43 H18         59.4050   -20.1880   -12.8150 hc         1 TO7       0.047200
@<TRIPOS>BOND
     1     1     4 ar  
     2     1     5 ar  
     3     1    26 1   
     4     2     4 ar  
     5     2     6 ar  
     6     2    12 1   
     7     3     5 ar  
     8     3     6 ar  
     9     3    27 1   
    10     4    28 1   
    11     5    29 1   
    12     6    13 1   
    13     7     8 2   
    14     7    12 1   
    15     7    14 1   
    16     8    16 1   
    17     8    17 1   
    18     9    13 1   
    19    10    13 1   
    20    11    12 2   
    21    14    15 1   
    22    15    16 2   
    23    15    18 1   
    24    17    30 1   
    25    17    31 1   
    26    18    19 1   
    27    18    32 1   
    28    19    20 1   
    29    19    23 1   
    30    19    33 1   
    31    20    21 1   
    32    20    22 1   
    33    20    34 1   
    34    21    24 1   
    35    21    35 1   
    36    21    36 1   
    37    22    25 1   
    38    22    37 1   
    39    22    38 1   
    40    23    24 1   
    41    23    39 1   
    42    23    40 1   
    43    24    25 1   
    44    24    41 1   
    45    25    42 1   
    46    25    43 1   
@<TRIPOS>SUBSTRUCTURE
     1 TO7         1 TEMP              0 ****  ****    0 ROOT
