@<TRIPOS>MOLECULE
TO8
   25    26     1     0     0
SMALL
No Charge or Current Charge


@<TRIPOS>ATOM
      1 C1          35.5280    39.4230    12.1490 c3         1 TO8       0.209100
      2 C2          36.4030    41.0230    13.8210 cc         1 TO8       0.786800
      3 C3          35.0260    42.4410    15.0990 c          1 TO8       0.723400
      4 C7          39.7140    40.5860    15.6790 ca         1 TO8      -0.160000
      5 C8          38.7220    40.4140    14.6970 ca         1 TO8      -0.027000
      6 C9          37.5070    41.1350    14.7860 ca         1 TO8      -0.276900
      7 C6          39.4960    41.4580    16.7570 ca         1 TO8       0.185000
      8 C5          38.2820    42.1480    16.8680 ca         1 TO8      -0.180000
      9 N           36.6030    40.2890    12.6750 nh         1 TO8      -0.735600
     10 C           37.6310    40.7060    11.6980 c3         1 TO8       0.209100
     11 C4          37.2990    41.9710    15.8850 ca         1 TO8       0.137600
     12 N2          36.0560    42.5920    15.9670 ns         1 TO8      -0.523600
     13 N1          35.2460    41.6210    13.9980 nd         1 TO8      -0.764100
     14 O           33.9580    42.9970    15.2620 o          1 TO8      -0.534000
     15 H1          34.9970    38.9240    12.9710 h1         1 TO8       0.048033
     16 H2          34.8040    40.0140    11.5750 h1         1 TO8       0.048033
     17 H3          35.9430    38.6470    11.4920 h1         1 TO8       0.048033
     18 H4          40.6500    40.0390    15.6070 ha         1 TO8       0.136000
     19 H5          38.9050    39.7160    13.8830 ha         1 TO8       0.124000
     20 H6          38.1070    42.8050    17.7150 ha         1 TO8       0.139000
     21 H7          38.2350    41.5370    12.0880 h1         1 TO8       0.048033
     22 H8          38.3020    39.8690    11.4680 h1         1 TO8       0.048033
     23 H9          37.1600    41.0390    10.7640 h1         1 TO8       0.048033
     24 H10         35.8710    43.1970    16.7580 hn         1 TO8       0.448000
     25 Cl          40.7390    41.6640    17.9840 cl         1 TO8      -0.185000
@<TRIPOS>BOND
     1     1     9 1   
     2     1    15 1   
     3     1    16 1   
     4     1    17 1   
     5     2     6 1   
     6     2     9 1   
     7     2    13 2   
     8     3    12 1   
     9     3    13 1   
    10     3    14 2   
    11     4     5 ar  
    12     4     7 ar  
    13     4    18 1   
    14     5     6 ar  
    15     5    19 1   
    16     6    11 ar  
    17     7     8 ar  
    18     7    25 1   
    19     8    11 ar  
    20     8    20 1   
    21     9    10 1   
    22    10    21 1   
    23    10    22 1   
    24    10    23 1   
    25    11    12 1   
    26    12    24 1   
@<TRIPOS>SUBSTRUCTURE
     1 TO8         1 TEMP              0 ****  ****    0 ROOT
