@<TRIPOS>MOLECULE
TO8
   25    26     1     0     0
SMALL
abcg2


@<TRIPOS>ATOM
      1 C1          35.3790    39.8860    11.9340 c3         1 TO8       0.209100
      2 C2          36.4030    40.9020    13.8630 cc         1 TO8       0.786800
      3 C3          34.9380    42.0300    15.2870 c          1 TO8       0.723400
      4 C7          39.7730    40.7580    15.6140 ca         1 TO8      -0.160000
      5 C8          38.7750    40.4790    14.7070 ca         1 TO8      -0.027000
      6 C9          37.5300    41.1170    14.7700 ca         1 TO8      -0.276900
      7 C6          39.5240    41.6900    16.6200 ca         1 TO8       0.185000
      8 C5          38.2940    42.2890    16.7640 ca         1 TO8      -0.180000
      9 N           36.5600    40.2810    12.6810 nh         1 TO8      -0.735600
     10 C           37.7800    40.3180    11.8930 c3         1 TO8       0.209100
     11 C4          37.2820    41.9720    15.8530 ca         1 TO8       0.137600
     12 N2          36.0220    42.4600    16.0270 ns         1 TO8      -0.523600
     13 N1          35.1900    41.2790    14.1860 nd         1 TO8      -0.764100
     14 O           33.8110    42.3710    15.6130 o          1 TO8      -0.534000
     15 H1          34.6190    39.4820    12.5960 h1         1 TO8       0.048033
     16 H2          34.9480    40.7240    11.3810 h1         1 TO8       0.048033
     17 H3          35.6670    39.1140    11.2240 h1         1 TO8       0.048033
     18 H4          40.7290    40.2580    15.5470 ha         1 TO8       0.136000
     19 H5          38.9740    39.7330    13.9530 ha         1 TO8       0.124000
     20 H6          38.0950    42.9730    17.5780 ha         1 TO8       0.139000
     21 H7          38.4720    41.0710    12.2580 h1         1 TO8       0.048033
     22 H8          38.2850    39.3510    11.8660 h1         1 TO8       0.048033
     23 H9          37.5220    40.5910    10.8700 h1         1 TO8       0.048033
     24 H10         35.8310    43.0510    16.8240 hn         1 TO8       0.448000
     25 CL          40.7810    42.0770    17.7380 cl         1 TO8      -0.185000
@<TRIPOS>BOND
     1     1     9 1   
     2     1    15 1   
     3     1    16 1   
     4     1    17 1   
     5     2     6 1   
     6     2     9 1   
     7     2    13 2   
     8     3    12 1   
     9     3    13 1   
    10     3    14 2   
    11     4     5 ar  
    12     4     7 ar  
    13     4    18 1   
    14     5     6 ar  
    15     5    19 1   
    16     6    11 ar  
    17     7     8 ar  
    18     7    25 1   
    19     8    11 ar  
    20     8    20 1   
    21     9    10 1   
    22    10    21 1   
    23    10    22 1   
    24    10    23 1   
    25    11    12 1   
    26    12    24 1   
@<TRIPOS>SUBSTRUCTURE
     1 TO8         1 TEMP              0 ****  ****    0 ROOT
