@<TRIPOS>MOLECULE
TO9
   23    23     1     0     0
SMALL
abcg2


@<TRIPOS>ATOM
      1 O3          49.4380    -9.1160   -21.2690 o          1 TO9      -0.721500
      2 C2          49.6980    -7.9130   -21.4890 c          1 TO9       0.686000
      3 O2          50.7990    -7.3260   -21.2960 o          1 TO9      -0.721500
      4 C1          48.5740    -7.0110   -22.0490 c3         1 TO9       0.028300
      5 O1          49.1640    -5.9170   -22.7530 oh         1 TO9      -0.712000
      6 C3          47.6830    -6.4610   -20.9170 c3         1 TO9      -0.040100
      7 C4          46.8690    -7.4890   -20.1780 ca         1 TO9      -0.040300
      8 C9          45.8660    -8.2170   -20.8220 ca         1 TO9      -0.073000
      9 C8          45.1060    -9.1600   -20.1420 ca         1 TO9      -0.137000
     10 C7          45.3290    -9.3850   -18.7880 ca         1 TO9       0.100100
     11 O5          44.5560   -10.2820   -18.1090 oh         1 TO9      -0.553100
     12 C6          46.3310    -8.6680   -18.1330 ca         1 TO9       0.000100
     13 O4          46.5630    -8.9750   -16.7990 oh         1 TO9      -0.575100
     14 C5          47.0960    -7.7410   -18.8250 ca         1 TO9      -0.083000
     15 H2          47.9670    -7.5860   -22.7500 h1         1 TO9       0.042700
     16 H3          50.0760    -5.9090   -22.4030 ho         1 TO9       0.471000
     17 H4          48.3280    -5.9250   -20.2170 hc         1 TO9       0.036700
     18 H5          47.0190    -5.7200   -21.3720 hc         1 TO9       0.036700
     19 H6          45.6790    -8.0530   -21.8770 ha         1 TO9       0.114000
     20 H7          44.3310    -9.7210   -20.6480 ha         1 TO9       0.113000
     21 H8          44.9040   -10.3420   -17.2050 ho         1 TO9       0.465000
     22 H9          46.2920    -8.2370   -16.2360 ho         1 TO9       0.441000
     23 H10         47.8810    -7.2140   -18.2940 ha         1 TO9       0.122000
@<TRIPOS>BOND
     1     1     2 1   
     2     2     3 1   
     3     2     4 1   
     4     4     5 1   
     5     4     6 1   
     6     4    15 1   
     7     5    16 1   
     8     6     7 1   
     9     6    17 1   
    10     6    18 1   
    11     7     8 ar  
    12     7    14 ar  
    13     8     9 ar  
    14     8    19 1   
    15     9    10 ar  
    16     9    20 1   
    17    10    11 1   
    18    10    12 ar  
    19    11    21 1   
    20    12    13 1   
    21    12    14 ar  
    22    13    22 1   
    23    14    23 1   
@<TRIPOS>SUBSTRUCTURE
     1 TO9         1 TEMP              0 ****  ****    0 ROOT
