@<TRIPOS>MOLECULE
TO9
   23    23     1     0     0
SMALL
No Charge or Current Charge


@<TRIPOS>ATOM
      1 O3          49.6300    -9.1420   -21.2750 o          1 TO9      -0.721500
      2 C2          49.6940    -7.9220   -21.2100 c          1 TO9       0.686000
      3 O2          50.6460    -7.3260   -20.7210 o          1 TO9      -0.721500
      4 C1          48.6120    -7.0700   -21.9730 c3         1 TO9       0.028300
      5 O1          49.2070    -6.0170   -22.7800 oh         1 TO9      -0.712000
      6 C3          47.5980    -6.4340   -20.9890 c3         1 TO9      -0.040100
      7 C4          46.7830    -7.4720   -20.2250 ca         1 TO9      -0.040300
      8 C9          45.7520    -8.1800   -20.8770 ca         1 TO9      -0.073000
      9 C8          44.9950    -9.1360   -20.1780 ca         1 TO9      -0.137000
     10 C7          45.2670    -9.3880   -18.8240 ca         1 TO9       0.100100
     11 O5          44.5400   -10.3110   -18.1360 oh         1 TO9      -0.553100
     12 C6          46.2940    -8.6870   -18.1620 ca         1 TO9       0.000100
     13 O4          46.5500    -8.9390   -16.8380 oh         1 TO9      -0.575100
     14 C5          47.0500    -7.7300   -18.8640 ca         1 TO9      -0.083000
     15 H2          48.0600    -7.7580   -22.6280 h1         1 TO9       0.042700
     16 H3          50.0400    -5.7630   -22.3140 ho         1 TO9       0.471000
     17 H4          48.1320    -5.7770   -20.2920 hc         1 TO9       0.036700
     18 H5          46.9130    -5.7870   -21.5520 hc         1 TO9       0.036700
     19 H6          45.5380    -7.9870   -21.9260 ha         1 TO9       0.114000
     20 H7          44.2020    -9.6790   -20.6850 ha         1 TO9       0.113000
     21 H8          44.9100   -10.3090   -17.2240 ho         1 TO9       0.465000
     22 H9          47.2920    -8.3690   -16.5390 ho         1 TO9       0.441000
     23 H10         47.8450    -7.1860   -18.3590 ha         1 TO9       0.122000
@<TRIPOS>BOND
     1     1     2 1   
     2     2     3 1   
     3     2     4 1   
     4     4     5 1   
     5     4     6 1   
     6     4    15 1   
     7     5    16 1   
     8     6     7 1   
     9     6    17 1   
    10     6    18 1   
    11     7     8 ar  
    12     7    14 ar  
    13     8     9 ar  
    14     8    19 1   
    15     9    10 ar  
    16     9    20 1   
    17    10    11 1   
    18    10    12 ar  
    19    11    21 1   
    20    12    13 1   
    21    12    14 ar  
    22    13    22 1   
    23    14    23 1   
@<TRIPOS>SUBSTRUCTURE
     1 TO9         1 TEMP              0 ****  ****    0 ROOT
