@<TRIPOS>MOLECULE
TOA
   26    26     1     0     0
SMALL
No Charge or Current Charge


@<TRIPOS>ATOM
      1 C1          -2.1810     5.5910     2.9160 c6         1 TOA       0.367300
      2 C2          -1.4250     4.7080     1.8640 c6         1 TOA       0.134300
      3 C3          -1.4070     3.2240     2.3300 c6         1 TOA       0.101300
      4 C4          -0.8210     3.1000     3.7630 c6         1 TOA       0.127300
      5 C5          -1.6420     4.0190     4.7260 c6         1 TOA       0.151300
      6 C6          -1.0800     4.0330     6.1870 c3         1 TOA       0.164600
      7 O1          -3.5660     5.2490     2.9640 oh         1 TOA      -0.667000
      8 O2          -2.0380     4.8060     0.5580 oh         1 TOA      -0.717000
      9 N3          -0.5690     2.3660     1.3390 nz         1 TOA      -0.969000
     10 O4          -0.8660     1.7150     4.1710 oh         1 TOA      -0.731000
     11 O5          -1.6320     5.3910     4.2330 os         1 TOA      -0.447000
     12 O6           0.2740     4.5290     6.2810 oh         1 TOA      -0.728000
     13 H1          -2.0660     6.6510     2.6350 h2         1 TOA       0.096700
     14 H2          -0.3860     5.0670     1.8130 h1         1 TOA       0.061700
     15 H3          -2.4300     2.8240     2.3220 hx         1 TOA       0.146700
     16 H4           0.2190     3.4600     3.7440 h1         1 TOA       0.074700
     17 H5          -2.6800     3.6580     4.7740 h1         1 TOA       0.080700
     18 H61         -1.7520     4.6580     6.7920 h1         1 TOA       0.050700
     19 H62         -1.1450     3.0150     6.5950 h1         1 TOA       0.050700
     20 HO1         -3.9470     5.8150     3.6700 ho         1 TOA       0.486000
     21 HO2         -3.0110     4.8880     0.7250 ho         1 TOA       0.546000
     22 HN31        -0.9380     2.4120     0.3770 hn         1 TOA       0.515000
     23 HN32         0.4170     2.6550     1.2770 hn         1 TOA       0.515000
     24 HN33        -0.5580     1.3700     1.6090 hn         1 TOA       0.515000
     25 HO4         -0.1610     1.5860     4.8520 ho         1 TOA       0.547000
     26 HO6          0.4740     4.6460     7.2400 ho         1 TOA       0.527000
@<TRIPOS>BOND
     1     1     2 1   
     2     1     7 1   
     3     1    11 1   
     4     1    13 1   
     5     2     3 1   
     6     2     8 1   
     7     2    14 1   
     8     3     4 1   
     9     3     9 1   
    10     3    15 1   
    11     4     5 1   
    12     4    10 1   
    13     4    16 1   
    14     5     6 1   
    15     5    11 1   
    16     5    17 1   
    17     6    12 1   
    18     6    18 1   
    19     6    19 1   
    20     7    20 1   
    21     8    21 1   
    22     9    22 1   
    23     9    23 1   
    24     9    24 1   
    25    10    25 1   
    26    12    26 1   
@<TRIPOS>SUBSTRUCTURE
     1 TOA         1 TEMP              0 ****  ****    0 ROOT
