@<TRIPOS>MOLECULE
TOA
   26    26     1     0     0
SMALL
abcg2


@<TRIPOS>ATOM
      1 C1          -2.3680     5.4440     3.0090 c6         1 TOA       0.367300
      2 C2          -1.5830     4.6560     1.9530 c6         1 TOA       0.134300
      3 C3          -1.4420     3.2150     2.4150 c6         1 TOA       0.101300
      4 C4          -0.7920     3.1490     3.7880 c6         1 TOA       0.127300
      5 C5          -1.6300     3.9990     4.7520 c6         1 TOA       0.151300
      6 C6          -1.0490     4.0610     6.1480 c3         1 TOA       0.164600
      7 O1          -3.6720     4.9790     3.0150 oh         1 TOA      -0.667000
      8 O2          -2.1990     4.6440     0.6960 oh         1 TOA      -0.717000
      9 N3          -0.6240     2.4530     1.4310 nz         1 TOA      -0.969000
     10 O4          -0.7500     1.7990     4.1730 oh         1 TOA      -0.731000
     11 O5          -1.7330     5.3230     4.2550 os         1 TOA      -0.447000
     12 O6           0.2680     4.5500     6.0930 oh         1 TOA      -0.728000
     13 H1          -2.3200     6.5140     2.7740 h2         1 TOA       0.096700
     14 H2          -0.5790     5.1010     1.9030 h1         1 TOA       0.061700
     15 H3          -2.4160     2.7190     2.4370 hx         1 TOA       0.146700
     16 H4           0.2160     3.5770     3.7160 h1         1 TOA       0.074700
     17 H5          -2.6220     3.5370     4.8440 h1         1 TOA       0.080700
     18 H61         -1.6990     4.6960     6.7630 h1         1 TOA       0.050700
     19 H62         -1.0990     3.0530     6.5780 h1         1 TOA       0.050700
     20 HO1         -4.2280     5.5910     3.5100 ho         1 TOA       0.486000
     21 HO2         -1.9930     5.4630     0.2340 ho         1 TOA       0.546000
     22 HN31        -1.0460     2.4800     0.5000 hn         1 TOA       0.515000
     23 HN32         0.3250     2.8230     1.3430 hn         1 TOA       0.515000
     24 HN33        -0.5410     1.4730     1.7060 hn         1 TOA       0.515000
     25 HO4          0.0050     1.6570     4.7510 ho         1 TOA       0.547000
     26 HO6          0.6560     4.4780     6.9690 ho         1 TOA       0.527000
@<TRIPOS>BOND
     1     1     2 1   
     2     1     7 1   
     3     1    11 1   
     4     1    13 1   
     5     2     3 1   
     6     2     8 1   
     7     2    14 1   
     8     3     4 1   
     9     3     9 1   
    10     3    15 1   
    11     4     5 1   
    12     4    10 1   
    13     4    16 1   
    14     5     6 1   
    15     5    11 1   
    16     5    17 1   
    17     6    12 1   
    18     6    18 1   
    19     6    19 1   
    20     7    20 1   
    21     8    21 1   
    22     9    22 1   
    23     9    23 1   
    24     9    24 1   
    25    10    25 1   
    26    12    26 1   
@<TRIPOS>SUBSTRUCTURE
     1 TOA         1 TEMP              0 ****  ****    0 ROOT
