@<TRIPOS>MOLECULE
TOB
   26    26     1     0     0
SMALL
No Charge or Current Charge


@<TRIPOS>ATOM
      1 C1           0.4670    -1.2420     0.3140 c6         1 TOB       0.116300
      2 C2          -1.0220    -1.2680    -0.1010 c6         1 TOB      -0.135400
      3 C3          -1.7420     0.0100     0.3850 c6         1 TOB       0.125300
      4 C4          -1.0530     1.2780    -0.1680 c6         1 TOB      -0.156400
      5 C5           0.4410     1.3150     0.2430 c6         1 TOB       0.163300
      6 C6           1.1730     0.0270    -0.2480 c6         1 TOB       0.158300
      7 N1           1.1580    -2.5120    -0.2310 nz         1 TOB      -0.970000
      8 N3          -3.1870    -0.0190    -0.1190 nz         1 TOB      -0.976000
      9 O5           1.0740     2.4770    -0.3120 oh         1 TOB      -0.627000
     10 O6           2.5490     0.0460     0.1670 oh         1 TOB      -0.667000
     11 H1           0.5660    -1.2650     1.4090 hx         1 TOB       0.133700
     12 H21         -1.5110    -2.1550     0.3260 hc         1 TOB       0.089700
     13 H22         -1.1060    -1.3540    -1.1940 hc         1 TOB       0.089700
     14 H3          -1.7820     0.0380     1.4840 hx         1 TOB       0.123700
     15 H41         -1.1350     1.3070    -1.2640 hc         1 TOB       0.098200
     16 H42         -1.5670     2.1720     0.2100 hc         1 TOB       0.098200
     17 H5           0.4980     1.3450     1.3430 h1         1 TOB       0.070700
     18 H6           1.1130    -0.0000    -1.3470 h1         1 TOB       0.072700
     19 HN11         1.0750    -2.6260    -1.2520 hn         1 TOB       0.530667
     20 HN12         2.1730    -2.4970    -0.0410 hn         1 TOB       0.530667
     21 HN13         0.8080    -3.3880     0.1860 hn         1 TOB       0.530667
     22 HN31        -3.7190    -0.8360     0.2200 hn         1 TOB       0.527667
     23 HN32        -3.2670    -0.0450    -1.1470 hn         1 TOB       0.527667
     24 HN33        -3.7380     0.8020     0.1800 hn         1 TOB       0.527667
     25 HO5          0.6380     3.2660     0.0830 ho         1 TOB       0.494000
     26 HO6          2.8630     0.9630    -0.0190 ho         1 TOB       0.525000
@<TRIPOS>BOND
     1     1     2 1   
     2     1     6 1   
     3     1     7 1   
     4     1    11 1   
     5     2     3 1   
     6     2    12 1   
     7     2    13 1   
     8     3     4 1   
     9     3     8 1   
    10     3    14 1   
    11     4     5 1   
    12     4    15 1   
    13     4    16 1   
    14     5     6 1   
    15     5     9 1   
    16     5    17 1   
    17     6    10 1   
    18     6    18 1   
    19     7    19 1   
    20     7    20 1   
    21     7    21 1   
    22     8    22 1   
    23     8    23 1   
    24     8    24 1   
    25     9    25 1   
    26    10    26 1   
@<TRIPOS>SUBSTRUCTURE
     1 TOB         1 TEMP              0 ****  ****    0 ROOT
