@<TRIPOS>MOLECULE
TOB
   26    26     1     0     0
SMALL
abcg2


@<TRIPOS>ATOM
      1 C1           0.4310    -1.1880     0.2830 c6         1 TOB       0.116300
      2 C2          -1.0260    -1.2600    -0.1440 c6         1 TOB      -0.135400
      3 C3          -1.7400    -0.0060     0.3340 c6         1 TOB       0.125300
      4 C4          -1.0790     1.2580    -0.1870 c6         1 TOB      -0.156400
      5 C5           0.3870     1.2980     0.2400 c6         1 TOB       0.163300
      6 C6           1.1270     0.0560    -0.2500 c6         1 TOB       0.158300
      7 N1           1.1570    -2.3960    -0.1890 nz         1 TOB      -0.970000
      8 N3          -3.1610    -0.0520    -0.1030 nz         1 TOB      -0.976000
      9 O5           1.0540     2.4060    -0.3070 oh         1 TOB      -0.627000
     10 O6           2.4510     0.0080     0.2040 oh         1 TOB      -0.667000
     11 H1           0.5050    -1.2130     1.3730 hx         1 TOB       0.133700
     12 H21         -1.4950    -2.1500     0.2810 hc         1 TOB       0.089700
     13 H22         -1.0940    -1.3370    -1.2340 hc         1 TOB       0.089700
     14 H3          -1.7730     0.0070     1.4250 hx         1 TOB       0.123700
     15 H41         -1.1430     1.2930    -1.2790 hc         1 TOB       0.098200
     16 H42         -1.5940     2.1400     0.2020 hc         1 TOB       0.098200
     17 H5           0.4390     1.3130     1.3390 h1         1 TOB       0.070700
     18 H6           1.0770     0.0400    -1.3510 h1         1 TOB       0.072700
     19 HN11         1.1060    -2.5130    -1.2020 hn         1 TOB       0.530667
     20 HN12         2.1480    -2.3480     0.0580 hn         1 TOB       0.530667
     21 HN13         0.7860    -3.2480     0.2320 hn         1 TOB       0.530667
     22 HN31        -3.6460    -0.8740     0.2590 hn         1 TOB       0.527667
     23 HN32        -3.2560    -0.0710    -1.1190 hn         1 TOB       0.527667
     24 HN33        -3.6810     0.7620     0.2290 hn         1 TOB       0.527667
     25 HO5          0.8420     3.1860     0.2150 ho         1 TOB       0.494000
     26 HO6          2.9460     0.7280    -0.2020 ho         1 TOB       0.525000
@<TRIPOS>BOND
     1     1     2 1   
     2     1     6 1   
     3     1     7 1   
     4     1    11 1   
     5     2     3 1   
     6     2    12 1   
     7     2    13 1   
     8     3     4 1   
     9     3     8 1   
    10     3    14 1   
    11     4     5 1   
    12     4    15 1   
    13     4    16 1   
    14     5     6 1   
    15     5     9 1   
    16     5    17 1   
    17     6    10 1   
    18     6    18 1   
    19     7    19 1   
    20     7    20 1   
    21     7    21 1   
    22     8    22 1   
    23     8    23 1   
    24     8    24 1   
    25     9    25 1   
    26    10    26 1   
@<TRIPOS>SUBSTRUCTURE
     1 TOB         1 TEMP              0 ****  ****    0 ROOT
