@<TRIPOS>MOLECULE
TOC
   27    27     1     0     0
SMALL
No Charge or Current Charge


@<TRIPOS>ATOM
      1 C1         -10.7720    -4.6900    -6.7890 c6         1 TOC       0.387300
      2 C2          -9.5020    -5.5900    -7.0180 c6         1 TOC       0.080300
      3 C3          -9.8920    -6.9970    -7.5370 c6         1 TOC      -0.137400
      4 C4         -10.9480    -7.6410    -6.6050 c6         1 TOC       0.150300
      5 C5         -12.1690    -6.6710    -6.4620 c6         1 TOC       0.141300
      6 C6         -13.2380    -7.1960    -5.4620 c3         1 TOC       0.102600
      7 N2          -8.5200    -4.9500    -8.0430 nz         1 TOC      -0.969000
      8 N6         -13.8540    -8.4970    -5.9420 nz         1 TOC      -0.975000
      9 O1         -11.4100    -4.3870    -8.0280 oh         1 TOC      -0.693000
     10 O4         -11.3470    -8.9230    -7.1300 oh         1 TOC      -0.744000
     11 O5         -11.7280    -5.3820    -5.9640 os         1 TOC      -0.440000
     12 H1         -10.4630    -3.7590    -6.2840 h2         1 TOC       0.114700
     13 H2          -8.9560    -5.6820    -6.0680 hx         1 TOC       0.126700
     14 H3          -8.9990    -7.6340    -7.5940 hc         1 TOC       0.098200
     15 H32        -10.2980    -6.9240    -8.5560 hc         1 TOC       0.098200
     16 H4         -10.4990    -7.7690    -5.6070 h1         1 TOC       0.070700
     17 H5         -12.6510    -6.5390    -7.4420 h1         1 TOC       0.090700
     18 H61        -14.0250    -6.4460    -5.3260 hx         1 TOC       0.125700
     19 H62        -12.7640    -7.3580    -4.4880 hx         1 TOC       0.125700
     20 HN21        -7.7100    -5.5450    -8.2740 hn         1 TOC       0.528000
     21 HN22        -8.9870    -4.7380    -8.9400 hn         1 TOC       0.528000
     22 HN23        -8.1230    -4.0510    -7.7290 hn         1 TOC       0.528000
     23 HN61       -14.3290    -9.0400    -5.2040 hn         1 TOC       0.528667
     24 HN62       -14.5480    -8.3750    -6.6970 hn         1 TOC       0.528667
     25 HN63       -13.1230    -9.1160    -6.3460 hn         1 TOC       0.528667
     26 HO1        -12.2120    -3.8760    -7.7830 ho         1 TOC       0.515000
     27 HO4        -10.5210    -9.4480    -7.2810 ho         1 TOC       0.562000
@<TRIPOS>BOND
     1     1     2 1   
     2     1     9 1   
     3     1    11 1   
     4     1    12 1   
     5     2     3 1   
     6     2     7 1   
     7     2    13 1   
     8     3     4 1   
     9     3    14 1   
    10     3    15 1   
    11     4     5 1   
    12     4    10 1   
    13     4    16 1   
    14     5     6 1   
    15     5    11 1   
    16     5    17 1   
    17     6     8 1   
    18     6    18 1   
    19     6    19 1   
    20     7    20 1   
    21     7    21 1   
    22     7    22 1   
    23     8    23 1   
    24     8    24 1   
    25     8    25 1   
    26     9    26 1   
    27    10    27 1   
@<TRIPOS>SUBSTRUCTURE
     1 TOC         1 TEMP              0 ****  ****    0 ROOT
