@<TRIPOS>MOLECULE
TOC
   27    27     1     0     0
SMALL
bcc


@<TRIPOS>ATOM
      1 C1         -10.8190    -4.7660    -6.8320 c6         1 TOC       0.340900
      2 C2          -9.5560    -5.6030    -7.0460 c6         1 TOC       0.108500
      3 C3          -9.8880    -6.9850    -7.5870 c6         1 TOC      -0.137400
      4 C4         -10.8990    -7.6490    -6.6590 c6         1 TOC       0.127100
      5 C5         -12.1140    -6.7390    -6.4900 c6         1 TOC       0.118100
      6 C6         -13.1010    -7.2470    -5.4470 c3         1 TOC       0.130800
      7 N2          -8.6340    -4.8900    -7.9710 nz         1 TOC      -0.831600
      8 N6         -13.8490    -8.4290    -5.9440 nz         1 TOC      -0.837600
      9 O1         -11.3430    -4.4780    -8.0800 oh         1 TOC      -0.630800
     10 O4         -11.3610    -8.8760    -7.1730 oh         1 TOC      -0.621800
     11 O5         -11.7000    -5.4760    -6.0080 os         1 TOC      -0.393600
     12 H1         -10.5800    -3.8570    -6.2690 h2         1 TOC       0.114700
     13 H2          -9.0280    -5.6840    -6.0960 hx         1 TOC       0.126700
     14 H3          -8.9790    -7.5890    -7.6430 hc         1 TOC       0.098200
     15 H32        -10.3060    -6.9150    -8.5950 hc         1 TOC       0.098200
     16 H4         -10.4390    -7.7850    -5.6700 h1         1 TOC       0.070700
     17 H5         -12.6300    -6.6420    -7.4560 h1         1 TOC       0.090700
     18 H61        -13.8340    -6.4770    -5.2120 hx         1 TOC       0.125700
     19 H62        -12.5950    -7.5450    -4.5300 hx         1 TOC       0.125700
     20 HN21        -7.7840    -5.4310    -8.1400 hn         1 TOC       0.472800
     21 HN22        -9.0690    -4.7100    -8.8790 hn         1 TOC       0.472800
     22 HN23        -8.3360    -3.9880    -7.5940 hn         1 TOC       0.472800
     23 HN61       -14.4360    -8.8290    -5.2110 hn         1 TOC       0.473467
     24 HN62       -14.4650    -8.1940    -6.7230 hn         1 TOC       0.473467
     25 HN63       -13.2050    -9.1540    -6.2750 hn         1 TOC       0.473467
     26 HO1        -11.9560    -3.7360    -8.0170 ho         1 TOC       0.476000
     27 HO4        -10.6810    -9.5480    -7.0520 ho         1 TOC       0.463000
@<TRIPOS>BOND
     1     1     2 1   
     2     1     9 1   
     3     1    11 1   
     4     1    12 1   
     5     2     3 1   
     6     2     7 1   
     7     2    13 1   
     8     3     4 1   
     9     3    14 1   
    10     3    15 1   
    11     4     5 1   
    12     4    10 1   
    13     4    16 1   
    14     5     6 1   
    15     5    11 1   
    16     5    17 1   
    17     6     8 1   
    18     6    18 1   
    19     6    19 1   
    20     7    20 1   
    21     7    21 1   
    22     7    22 1   
    23     8    23 1   
    24     8    24 1   
    25     8    25 1   
    26     9    26 1   
    27    10    27 1   
@<TRIPOS>SUBSTRUCTURE
     1 TOC         1 TEMP              0 ****  ****    0 ROOT
