@<TRIPOS>MOLECULE
TOD
   45    45     1     0     0
SMALL
No Charge or Current Charge


@<TRIPOS>ATOM
      1 C2           2.1290     2.5600     0.5920 c3         1 TOD      -0.074700
      2 C3           3.2220     2.4190    -0.4930 c3         1 TOD      -0.080600
      3 C4           1.8000     1.2390     1.3570 c3         1 TOD      -0.050400
      4 C5           1.2180     0.0110     0.5750 c3         1 TOD      -0.173700
      5 C6           2.2440    -0.8610    -0.2140 c3         1 TOD       0.114300
      6 C7           3.5030    -1.2560     0.6300 c          1 TOD       0.569100
      7 C10         -3.5780    -0.7500    -0.0650 ca         1 TOD      -0.042300
      8 C11         -3.9650    -0.7820     1.2910 ca         1 TOD      -0.101500
      9 C12         -4.9590    -1.6760     1.7260 ca         1 TOD      -0.124500
     10 C14         -5.1920    -2.5210    -0.5420 ca         1 TOD      -0.124500
     11 C16         -2.9430     1.7070    -0.3930 c          1 TOD       0.737000
     12 O6          -3.4890     2.2410    -1.3510 o          1 TOD      -0.710500
     13 O5          -2.7560     2.2810     0.6740 o          1 TOD      -0.710500
     14 C9          -2.4960     0.2150    -0.5450 c3         1 TOD      -0.004000
     15 C15         -4.1980    -1.6270    -0.9780 ca         1 TOD      -0.101500
     16 C13         -5.5730    -2.5460     0.8100 ca         1 TOD      -0.138000
     17 N2          -1.2050    -0.0520     0.1320 ns         1 TOD      -0.466900
     18 C8           0.0190     0.3930    -0.3170 c          1 TOD       0.606100
     19 O4           0.1320     1.0370    -1.3520 o          1 TOD      -0.594100
     20 C1           2.5210     3.6720     1.5950 c3         1 TOD      -0.080600
     21 O3           1.5640    -2.0450    -0.6960 oh         1 TOD      -0.632000
     22 O1           3.4240    -1.9620     1.6310 o          1 TOD      -0.594100
     23 N1           4.7250    -0.7800     0.1580 ns         1 TOD      -0.376400
     24 O2           5.9760    -1.2850     0.6860 oh         1 TOD      -0.437100
     25 H1           1.2130     2.9080     0.0950 hc         1 TOD       0.122700
     26 H2           3.4850     3.4020    -0.9020 hc         1 TOD       0.024533
     27 H3           4.1320     1.9740    -0.0770 hc         1 TOD       0.024533
     28 H4           2.8740     1.8100    -1.3320 hc         1 TOD       0.024533
     29 H5           2.6870     0.9280     1.9210 hc         1 TOD       0.033200
     30 H6           1.0560     1.4940     2.1230 hc         1 TOD       0.033200
     31 H7           0.8250    -0.6410     1.3660 hc         1 TOD       0.051700
     32 H8           2.6050    -0.2860    -1.0740 h1         1 TOD       0.104700
     33 H9          -3.4960    -0.1130     2.0090 ha         1 TOD       0.120500
     34 H10         -5.2520    -1.6940     2.7730 ha         1 TOD       0.092500
     35 H11         -5.6660    -3.1950    -1.2520 ha         1 TOD       0.092500
     36 H13         -2.3380     0.0490    -1.6180 h1         1 TOD       0.058700
     37 H14         -3.9110    -1.6180    -2.0270 ha         1 TOD       0.120500
     38 H15         -6.3420    -3.2370     1.1470 ha         1 TOD       0.090000
     39 H16         -1.2130    -0.5740     0.9990 hn         1 TOD       0.292500
     40 H17          3.4400     3.4080     2.1320 hc         1 TOD       0.024533
     41 H18          2.6880     4.6240     1.0760 hc         1 TOD       0.024533
     42 H19          1.7250     3.8300     2.3330 hc         1 TOD       0.024533
     43 H20          1.5220    -2.6800     0.0550 ho         1 TOD       0.448000
     44 H21          4.7730    -0.3390    -0.7610 hn         1 TOD       0.341500
     45 H22          6.4850    -0.4670     0.9010 ho         1 TOD       0.441000
@<TRIPOS>BOND
     1     1     2 1   
     2     1     3 1   
     3     1    20 1   
     4     1    25 1   
     5     2    26 1   
     6     2    27 1   
     7     2    28 1   
     8     3     4 1   
     9     3    29 1   
    10     3    30 1   
    11     4     5 1   
    12     4    18 1   
    13     4    31 1   
    14     5     6 1   
    15     5    21 1   
    16     5    32 1   
    17     6    22 2   
    18     6    23 1   
    19     7     8 ar  
    20     7    14 1   
    21     7    15 ar  
    22     8     9 ar  
    23     8    33 1   
    24     9    16 ar  
    25     9    34 1   
    26    10    15 ar  
    27    10    16 ar  
    28    10    35 1   
    29    11    12 1   
    30    11    13 1   
    31    11    14 1   
    32    14    17 1   
    33    14    36 1   
    34    15    37 1   
    35    16    38 1   
    36    17    18 1   
    37    17    39 1   
    38    18    19 2   
    39    20    40 1   
    40    20    41 1   
    41    20    42 1   
    42    21    43 1   
    43    23    24 1   
    44    23    44 1   
    45    24    45 1   
@<TRIPOS>SUBSTRUCTURE
     1 TOD         1 TEMP              0 ****  ****    0 ROOT
