@<TRIPOS>MOLECULE
TOD
   45    45     1     0     0
SMALL
abcg2


@<TRIPOS>ATOM
      1 C2           1.5210     2.1020     0.8430 c3         1 TOD      -0.074700
      2 C3           2.6120     2.5400    -0.1280 c3         1 TOD      -0.080600
      3 C4           1.6280     0.6390     1.2850 c3         1 TOD      -0.050400
      4 C5           1.4460    -0.4770     0.2350 c3         1 TOD      -0.173700
      5 C6           2.6650    -0.8310    -0.6180 c3         1 TOD       0.114300
      6 C7           3.8710    -1.1320     0.2680 c          1 TOD       0.569100
      7 C10         -3.3400    -0.6330    -0.0580 ca         1 TOD      -0.042300
      8 C11         -3.4680    -0.2260     1.2700 ca         1 TOD      -0.101500
      9 C12         -4.5730    -0.6040     2.0200 ca         1 TOD      -0.124500
     10 C14         -5.4600    -1.7790     0.1250 ca         1 TOD      -0.124500
     11 C16         -2.3470     1.3130    -1.2070 c          1 TOD       0.737000
     12 O6          -2.9890     1.5460    -2.2470 o          1 TOD      -0.710500
     13 O5          -1.9130     2.1250    -0.3770 o          1 TOD      -0.710500
     14 C9          -2.1580    -0.2020    -0.8850 c3         1 TOD      -0.004000
     15 C15         -4.3490    -1.4080    -0.6210 ca         1 TOD      -0.101500
     16 C13         -5.5740    -1.3810     1.4500 ca         1 TOD      -0.138000
     17 N2          -0.9310    -0.4880    -0.1780 ns         1 TOD      -0.466900
     18 C8           0.2670    -0.1660    -0.6780 c          1 TOD       0.606100
     19 O4           0.4040     0.3520    -1.7780 o          1 TOD      -0.594100
     20 C1           1.5500     2.9870     2.0870 c3         1 TOD      -0.080600
     21 O3           2.4090    -1.9600    -1.4180 oh         1 TOD      -0.632000
     22 O1           3.8740    -2.0690     1.0460 o          1 TOD      -0.594100
     23 N1           4.8920    -0.2770     0.1100 ns         1 TOD      -0.376400
     24 O2           6.0850    -0.5210     0.7180 oh         1 TOD      -0.437100
     25 H1           0.5460     2.2420     0.3670 hc         1 TOD       0.122700
     26 H2           2.5330     3.6080    -0.3370 hc         1 TOD       0.024533
     27 H3           3.6060     2.3640     0.2920 hc         1 TOD       0.024533
     28 H4           2.5480     2.0230    -1.0850 hc         1 TOD       0.024533
     29 H5           2.5800     0.4930     1.8070 hc         1 TOD       0.033200
     30 H6           0.8610     0.4750     2.0470 hc         1 TOD       0.033200
     31 H7           1.2060    -1.3820     0.8070 hc         1 TOD       0.051700
     32 H8           2.8860    -0.0210    -1.3140 h1         1 TOD       0.104700
     33 H9          -2.7040     0.3970     1.7210 ha         1 TOD       0.120500
     34 H10         -4.6570    -0.2850     3.0510 ha         1 TOD       0.092500
     35 H11         -6.2340    -2.3840    -0.3290 ha         1 TOD       0.092500
     36 H13         -2.1720    -0.7590    -1.8260 h1         1 TOD       0.058700
     37 H14         -4.2600    -1.7320    -1.6510 ha         1 TOD       0.120500
     38 H15         -6.4350    -1.6770     2.0360 ha         1 TOD       0.090000
     39 H16         -0.9780    -0.9480     0.7180 hn         1 TOD       0.292500
     40 H17          2.4930     2.8790     2.6300 hc         1 TOD       0.024533
     41 H18          1.4420     4.0400     1.8220 hc         1 TOD       0.024533
     42 H19          0.7430     2.7360     2.7770 hc         1 TOD       0.024533
     43 H20          2.2440    -2.7130    -0.8380 ho         1 TOD       0.448000
     44 H21          4.9380     0.3660    -0.6680 hn         1 TOD       0.341500
     45 H22          6.1070     0.0400     1.5050 ho         1 TOD       0.441000
@<TRIPOS>BOND
     1     1     2 1   
     2     1     3 1   
     3     1    20 1   
     4     1    25 1   
     5     2    26 1   
     6     2    27 1   
     7     2    28 1   
     8     3     4 1   
     9     3    29 1   
    10     3    30 1   
    11     4     5 1   
    12     4    18 1   
    13     4    31 1   
    14     5     6 1   
    15     5    21 1   
    16     5    32 1   
    17     6    22 2   
    18     6    23 1   
    19     7     8 ar  
    20     7    14 1   
    21     7    15 ar  
    22     8     9 ar  
    23     8    33 1   
    24     9    16 ar  
    25     9    34 1   
    26    10    15 ar  
    27    10    16 ar  
    28    10    35 1   
    29    11    12 1   
    30    11    13 1   
    31    11    14 1   
    32    14    17 1   
    33    14    36 1   
    34    15    37 1   
    35    16    38 1   
    36    17    18 1   
    37    17    39 1   
    38    18    19 2   
    39    20    40 1   
    40    20    41 1   
    41    20    42 1   
    42    21    43 1   
    43    23    24 1   
    44    23    44 1   
    45    24    45 1   
@<TRIPOS>SUBSTRUCTURE
     1 TOD         1 TEMP              0 ****  ****    0 ROOT
