@<TRIPOS>MOLECULE
TOE
   27    26     1     0     0
SMALL
No Charge or Current Charge


@<TRIPOS>ATOM
      1 O2          -4.4600     0.6440    -1.0790 oh         1 TOE      -0.709000
      2 CA          -3.8240     1.2510     0.0630 c3         1 TOE       0.163600
      3 CB          -3.0670     0.2030     0.9240 c3         1 TOE       0.160600
      4 OC          -1.9330    -0.2920     0.1830 os         1 TOE      -0.435000
      5 CD          -1.1530    -1.2840     0.8800 c3         1 TOE       0.162600
      6 CE           0.0330    -1.7170    -0.0150 c3         1 TOE       0.161600
      7 OF           0.9960    -0.6450    -0.0730 os         1 TOE      -0.434000
      8 CG           2.1510    -0.9240    -0.8890 c3         1 TOE       0.161600
      9 CH           3.1000     0.2980    -0.8560 c3         1 TOE       0.158600
     10 OI           3.7250     0.3760     0.4420 os         1 TOE      -0.442000
     11 CK           4.6310     1.4800     0.6010 c3         1 TOE       0.145900
     12 H1          -4.8630     1.3750    -1.6030 ho         1 TOE       0.500000
     13 H2          -3.1150     2.0260    -0.2580 h1         1 TOE       0.024700
     14 H3          -4.5780     1.7380     0.6950 h1         1 TOE       0.024700
     15 H4          -2.7340     0.6830     1.8530 h1         1 TOE       0.026200
     16 H5          -3.7500    -0.6150     1.1900 h1         1 TOE       0.026200
     17 H6          -0.7700    -0.8890     1.8310 h1         1 TOE       0.027700
     18 H7          -1.7690    -2.1650     1.1010 h1         1 TOE       0.027700
     19 H8           0.4920    -2.6160     0.4170 h1         1 TOE       0.028200
     20 H9          -0.3360    -1.9700    -1.0170 h1         1 TOE       0.028200
     21 H10          2.6840    -1.8130    -0.5280 h1         1 TOE       0.026700
     22 H11          1.8450    -1.1060    -1.9280 h1         1 TOE       0.026700
     23 H12          3.8620     0.1750    -1.6370 h1         1 TOE       0.029200
     24 H13          2.5310     1.2110    -1.0750 h1         1 TOE       0.029200
     25 H14          4.1090     2.4360     0.4590 h1         1 TOE       0.026700
     26 H15          5.0660     1.4750     1.6080 h1         1 TOE       0.026700
     27 H16          5.4510     1.4200    -0.1260 h1         1 TOE       0.026700
@<TRIPOS>BOND
     1     1     2 1   
     2     1    12 1   
     3     2     3 1   
     4     2    13 1   
     5     2    14 1   
     6     3     4 1   
     7     3    15 1   
     8     3    16 1   
     9     4     5 1   
    10     5     6 1   
    11     5    17 1   
    12     5    18 1   
    13     6     7 1   
    14     6    19 1   
    15     6    20 1   
    16     7     8 1   
    17     8     9 1   
    18     8    21 1   
    19     8    22 1   
    20     9    10 1   
    21     9    23 1   
    22     9    24 1   
    23    10    11 1   
    24    11    25 1   
    25    11    26 1   
    26    11    27 1   
@<TRIPOS>SUBSTRUCTURE
     1 TOE         1 TEMP              0 ****  ****    0 ROOT
