@<TRIPOS>MOLECULE
TOE
   27    26     1     0     0
SMALL
abcg2


@<TRIPOS>ATOM
      1 O2          -4.0840     0.8650    -1.1350 oh         1 TOE      -0.709000
      2 CA          -3.6690     1.2740     0.1470 c3         1 TOE       0.163600
      3 CB          -3.0220     0.1170     0.8640 c3         1 TOE       0.160600
      4 OC          -1.8400    -0.2550     0.2010 os         1 TOE      -0.435000
      5 CD          -1.1600    -1.3020     0.8450 c3         1 TOE       0.162600
      6 CE           0.0450    -1.7000     0.0330 c3         1 TOE       0.161600
      7 OF           0.9670    -0.6410    -0.0070 os         1 TOE      -0.434000
      8 CG           2.0970    -0.9380    -0.7870 c3         1 TOE       0.161600
      9 CH           3.0230     0.2510    -0.8250 c3         1 TOE       0.158600
     10 OI           3.5470     0.4940     0.4550 os         1 TOE      -0.442000
     11 CK           4.4530     1.5660     0.4680 c3         1 TOE       0.145900
     12 H1          -4.4570     1.6280    -1.5860 ho         1 TOE       0.500000
     13 H2          -2.9590     2.1110     0.0980 h1         1 TOE       0.024700
     14 H3          -4.5120     1.6110     0.7630 h1         1 TOE       0.024700
     15 H4          -2.8160     0.4280     1.8970 h1         1 TOE       0.026200
     16 H5          -3.7220    -0.7300     0.9210 h1         1 TOE       0.026200
     17 H6          -0.8520    -1.0080     1.8590 h1         1 TOE       0.027700
     18 H7          -1.8040    -2.1870     0.9520 h1         1 TOE       0.027700
     19 H8           0.4880    -2.5950     0.4930 h1         1 TOE       0.028200
     20 H9          -0.2690    -1.9870    -0.9810 h1         1 TOE       0.028200
     21 H10          2.6300    -1.8160    -0.3930 h1         1 TOE       0.026700
     22 H11          1.8110    -1.1780    -1.8200 h1         1 TOE       0.026700
     23 H12          3.8250     0.0320    -1.5460 h1         1 TOE       0.029200
     24 H13          2.4860     1.1310    -1.2070 h1         1 TOE       0.029200
     25 H14          3.9810     2.5100     0.1680 h1         1 TOE       0.026700
     26 H15          4.8280     1.6800     1.4840 h1         1 TOE       0.026700
     27 H16          5.3070     1.3920    -0.1980 h1         1 TOE       0.026700
@<TRIPOS>BOND
     1     1     2 1   
     2     1    12 1   
     3     2     3 1   
     4     2    13 1   
     5     2    14 1   
     6     3     4 1   
     7     3    15 1   
     8     3    16 1   
     9     4     5 1   
    10     5     6 1   
    11     5    17 1   
    12     5    18 1   
    13     6     7 1   
    14     6    19 1   
    15     6    20 1   
    16     7     8 1   
    17     8     9 1   
    18     8    21 1   
    19     8    22 1   
    20     9    10 1   
    21     9    23 1   
    22     9    24 1   
    23    10    11 1   
    24    11    25 1   
    25    11    26 1   
    26    11    27 1   
@<TRIPOS>SUBSTRUCTURE
     1 TOE         1 TEMP              0 ****  ****    0 ROOT
