@<TRIPOS>MOLECULE
TOF
   21    22     1     0     0
SMALL
No Charge or Current Charge


@<TRIPOS>ATOM
      1 C1          -1.1230    -1.2080     0.0340 c          1 TOF       0.472500
      2 O1          -1.5840    -2.3430     0.0650 o          1 TOF      -0.474000
      3 C2           0.3390    -0.9350     0.0240 cc         1 TOF      -0.014500
      4 O2          -2.2220     2.2220     0.0010 o          1 TOF      -0.491000
      5 N3           1.1990    -1.9360     0.0380 nd         1 TOF      -0.030000
      6 C4           2.5400    -1.5480     0.0270 cd         1 TOF       0.008900
      7 N5           3.0160    -0.2900     0.0040 nc         1 TOF      -0.180800
      8 N6           2.0900     0.7430    -0.0100 na         1 TOF       0.122800
      9 C7           0.7360     0.4200    -0.0000 cc         1 TOF       0.055000
     10 N8          -0.0910     1.4460    -0.0090 nd         1 TOF      -0.429400
     11 C9          -1.4800     1.2510    -0.0010 c          1 TOF       0.725400
     12 N10         -1.9600    -0.0710     0.0070 n          1 TOF      -0.399400
     13 C11          2.6350     2.1150    -0.0350 c3         1 TOF       0.069900
     14 C12         -3.4340    -0.2840     0.0140 c3         1 TOF       0.082300
     15 H4           3.2560    -2.3610     0.0380 h5         1 TOF       0.081100
     16 H11          3.7310     2.0900    -0.0410 h1         1 TOF       0.075033
     17 H11A         2.2830     2.6320    -0.9350 h1         1 TOF       0.075033
     18 H11B         2.2950     2.6600     0.8540 h1         1 TOF       0.075033
     19 H12         -3.7880    -0.3720     1.0490 h1         1 TOF       0.058367
     20 H12A        -3.9570     0.5500    -0.4710 h1         1 TOF       0.058367
     21 H12B        -3.6980    -1.1980    -0.5330 h1         1 TOF       0.058367
@<TRIPOS>BOND
     1     1     2 2   
     2     1     3 1   
     3     1    12 1   
     4     3     5 2   
     5     3     9 1   
     6     4    11 2   
     7     5     6 1   
     8     6     7 2   
     9     6    15 1   
    10     7     8 1   
    11     8     9 1   
    12     8    13 1   
    13     9    10 2   
    14    10    11 1   
    15    11    12 1   
    16    12    14 1   
    17    13    16 1   
    18    13    17 1   
    19    13    18 1   
    20    14    19 1   
    21    14    20 1   
    22    14    21 1   
@<TRIPOS>SUBSTRUCTURE
     1 TOF         1 TEMP              0 ****  ****    0 ROOT
