@<TRIPOS>MOLECULE
TOF
   21    22     1     0     0
SMALL
abcg2


@<TRIPOS>ATOM
      1 C1          -1.1200    -1.1840     0.0580 c          1 TOF       0.472500
      2 O1          -1.5410    -2.3160     0.1250 o          1 TOF      -0.474000
      3 C2           0.3350    -0.8910     0.0320 cc         1 TOF      -0.014500
      4 O2          -2.2390     2.1650     0.0650 o          1 TOF      -0.491000
      5 N3           1.1870    -1.8600     0.0360 nd         1 TOF      -0.030000
      6 C4           2.4890    -1.5090     0.0110 cd         1 TOF       0.008900
      7 N5           2.9330    -0.2880    -0.0130 nc         1 TOF      -0.180800
      8 N6           2.0600     0.6910    -0.0150 na         1 TOF       0.122800
      9 C7           0.7180     0.4860     0.0070 cc         1 TOF       0.055000
     10 N8          -0.0960     1.4940     0.0100 nd         1 TOF      -0.429400
     11 C9          -1.4370     1.2560     0.0260 c          1 TOF       0.725400
     12 N10         -1.9160    -0.0740    -0.0080 n          1 TOF      -0.399400
     13 C11          2.5840     2.0480    -0.0380 c3         1 TOF       0.069900
     14 C12         -3.3600    -0.2790    -0.0120 c3         1 TOF       0.082300
     15 H4           3.2290    -2.2940     0.0120 h5         1 TOF       0.081100
     16 H11          3.6660     1.9860    -0.0570 h1         1 TOF       0.075033
     17 H11A         2.2180     2.5670    -0.9210 h1         1 TOF       0.075033
     18 H11B         2.2520     2.5830     0.8490 h1         1 TOF       0.075033
     19 H12         -3.7480    -0.3240     1.0060 h1         1 TOF       0.058367
     20 H12A        -3.8420     0.5360    -0.5380 h1         1 TOF       0.058367
     21 H12B        -3.5920    -1.2110    -0.5170 h1         1 TOF       0.058367
@<TRIPOS>BOND
     1     1     2 2   
     2     1     3 1   
     3     1    12 1   
     4     3     5 2   
     5     3     9 1   
     6     4    11 2   
     7     5     6 1   
     8     6     7 2   
     9     6    15 1   
    10     7     8 1   
    11     8     9 1   
    12     8    13 1   
    13     9    10 2   
    14    10    11 1   
    15    11    12 1   
    16    12    14 1   
    17    13    16 1   
    18    13    17 1   
    19    13    18 1   
    20    14    19 1   
    21    14    20 1   
    22    14    21 1   
@<TRIPOS>SUBSTRUCTURE
     1 TOF         1 TEMP              0 ****  ****    0 ROOT
