@<TRIPOS>MOLECULE
TOH
   21    21     1     0     0
SMALL
No Charge or Current Charge


@<TRIPOS>ATOM
      1 O8           5.7330    -3.8960     4.4550 o          1 TOH      -0.550100
      2 C9           5.7740    -4.0280     3.2280 c          1 TOH       0.407300
      3 C10          6.8890    -4.9530     2.4910 c          1 TOH       0.650000
      4 O11          7.8990    -5.2680     3.1170 o          1 TOH      -0.697500
      5 O10          6.6850    -5.3150     1.3340 o          1 TOH      -0.697500
      6 C8           4.7820    -3.3260     2.3410 ce         1 TOH      -0.234200
      7 C7           3.7760    -2.5110     2.7850 cf         1 TOH      -0.180200
      8 C1           2.7450    -1.7700     2.0130 ca         1 TOH      -0.051800
      9 C6           2.7050    -1.8520     0.6020 ca         1 TOH      -0.072000
     10 C5           1.7310    -1.1520    -0.1310 ca         1 TOH      -0.153000
     11 C4           0.7830    -0.3600     0.5290 ca         1 TOH      -0.089000
     12 C3           0.8080    -0.2670     1.9290 ca         1 TOH      -0.218000
     13 C2           1.7780    -0.9630     2.6690 ca         1 TOH       0.134100
     14 O2           1.7630    -0.8420     4.0300 oh         1 TOH      -0.523100
     15 H81          4.9080    -3.5050     1.2760 ha         1 TOH       0.199000
     16 H71          3.7070    -2.3760     3.8660 ha         1 TOH       0.195000
     17 H6           3.4250    -2.4570     0.0590 ha         1 TOH       0.129000
     18 H5           1.7140    -1.2260    -1.2170 ha         1 TOH       0.107000
     19 H4           0.0300     0.1810    -0.0420 ha         1 TOH       0.097000
     20 H3           0.0690     0.3500     2.4340 ha         1 TOH       0.098000
     21 HO2          1.0240    -0.2460     4.2750 ho         1 TOH       0.452000
@<TRIPOS>BOND
     1     1     2 2   
     2     2     3 1   
     3     2     6 1   
     4     3     4 1   
     5     3     5 1   
     6     6     7 2   
     7     6    15 1   
     8     7     8 1   
     9     7    16 1   
    10     8     9 ar  
    11     8    13 ar  
    12     9    10 ar  
    13     9    17 1   
    14    10    11 ar  
    15    10    18 1   
    16    11    12 ar  
    17    11    19 1   
    18    12    13 ar  
    19    12    20 1   
    20    13    14 1   
    21    14    21 1   
@<TRIPOS>SUBSTRUCTURE
     1 TOH         1 TEMP              0 ****  ****    0 ROOT
