@<TRIPOS>MOLECULE
TOH
   21    21     1     0     0
SMALL
bcc


@<TRIPOS>ATOM
      1 O8           5.9260    -3.5400     4.3160 o          1 TOH      -0.550100
      2 C9           5.7740    -3.8830     3.1600 c          1 TOH       0.407300
      3 C10          6.6810    -4.9870     2.5430 c          1 TOH       0.860600
      4 O11          7.5390    -5.4570     3.3020 o          1 TOH      -0.802800
      5 O10          6.4470    -5.2820     1.3580 o          1 TOH      -0.802800
      6 C8           4.7420    -3.2950     2.2880 ce         1 TOH      -0.184200
      7 C7           3.8690    -2.3900     2.7580 cf         1 TOH      -0.130200
      8 C1           2.8200    -1.7300     1.9920 ca         1 TOH      -0.051800
      9 C6           2.7920    -1.7550     0.5930 ca         1 TOH      -0.090000
     10 C5           1.7990    -1.1210    -0.1290 ca         1 TOH      -0.171000
     11 C4           0.7960    -0.4360     0.5500 ca         1 TOH      -0.107000
     12 C3           0.7950    -0.3890     1.9330 ca         1 TOH      -0.236000
     13 C2           1.7980    -1.0290     2.6580 ca         1 TOH       0.134100
     14 O2           1.8180    -1.0110     4.0010 oh         1 TOH      -0.484100
     15 H81          4.7110    -3.6390     1.2640 ha         1 TOH       0.149000
     16 H71          3.9430    -2.1220     3.8060 ha         1 TOH       0.145000
     17 H6           3.5800    -2.2710     0.0600 ha         1 TOH       0.147000
     18 H5           1.8070    -1.1530    -1.2100 ha         1 TOH       0.125000
     19 H4           0.0100     0.0670     0.0010 ha         1 TOH       0.115000
     20 H3           0.0080     0.1430     2.4560 ha         1 TOH       0.116000
     21 HO2          1.0730    -0.5040     4.3450 ho         1 TOH       0.413000
@<TRIPOS>BOND
     1     1     2 2   
     2     2     3 1   
     3     2     6 1   
     4     3     4 1   
     5     3     5 1   
     6     6     7 2   
     7     6    15 1   
     8     7     8 1   
     9     7    16 1   
    10     8     9 ar  
    11     8    13 ar  
    12     9    10 ar  
    13     9    17 1   
    14    10    11 ar  
    15    10    18 1   
    16    11    12 ar  
    17    11    19 1   
    18    12    13 ar  
    19    12    20 1   
    20    13    14 1   
    21    14    21 1   
@<TRIPOS>SUBSTRUCTURE
     1 TOH         1 TEMP              0 ****  ****    0 ROOT
