@<TRIPOS>MOLECULE
TOJ
   43    46     1     0     0
SMALL
abcg2


@<TRIPOS>ATOM
      1 C1          51.5790   -17.9740   -11.3440 ca         1 TOJ      -0.079000
      2 O2          51.7210   -13.9080   -13.4270 o          1 TOJ      -0.597100
      3 C3          52.1920   -16.7960   -11.7580 ca         1 TOJ      -0.097000
      4 C4          50.3360   -18.0620   -13.3980 ca         1 TOJ      -0.060000
      5 C5          51.9010   -16.2320   -12.9980 ca         1 TOJ      -0.077600
      6 C6          50.9680   -16.8940   -13.7980 ca         1 TOJ      -0.127200
      7 C7          53.8830   -14.8040   -13.5240 cc         1 TOJ      -0.476600
      8 C8          54.6110   -13.6370   -13.8350 cd         1 TOJ       0.710900
      9 C9          56.3120   -15.0620   -13.8770 cc         1 TOJ       0.793300
     10 C11         59.3620   -19.2050   -12.9150 c5         1 TOJ      -0.082400
     11 C12         57.8610   -18.8680   -13.0390 c5         1 TOJ      -0.075700
     12 C10         52.4920   -14.8900   -13.3510 c          1 TOJ       0.650300
     13 N4          50.6540   -16.3830   -15.1360 no         1 TOJ       0.674200
     14 O3          49.5210   -16.5560   -15.5650 o          1 TOJ      -0.388000
     15 O1          51.5450   -15.8270   -15.7640 o          1 TOJ      -0.388000
     16 C2          50.6520   -18.6080   -12.1620 ca         1 TOJ      -0.110000
     17 S1          55.0050   -16.1660   -13.4950 ss         1 TOJ      -0.090400
     18 N1          55.9410   -13.7930   -14.0210 nd         1 TOJ      -0.838000
     19 N2          54.0530   -12.4250   -13.9390 nv         1 TOJ      -1.047900
     20 N3          57.5930   -15.3970   -14.0450 nu         1 TOJ      -0.909100
     21 C17         58.3530   -16.6340   -13.8420 c5         1 TOJ       0.245500
     22 C16         57.6640   -17.9600   -14.2680 c5         1 TOJ      -0.090400
     23 C14         58.7700   -16.9120   -12.3740 c5         1 TOJ      -0.098700
     24 C13         57.6730   -17.8720   -11.8800 c5         1 TOJ      -0.086400
     25 C15         59.9860   -17.8580   -12.4340 c5         1 TOJ      -0.080400
     26 H1          51.8250   -18.3920   -10.3760 ha         1 TOJ       0.124000
     27 H2          52.8950   -16.2940   -11.1070 ha         1 TOJ       0.134000
     28 H3          49.6280   -18.5410   -14.0590 ha         1 TOJ       0.148000
     29 H5          59.7800   -19.5440   -13.8640 hc         1 TOJ       0.048200
     30 H6          57.2080   -19.7390   -13.0370 hc         1 TOJ       0.074700
     31 H7          50.1770   -19.5270   -11.8450 ha         1 TOJ       0.127000
     32 H8          54.6030   -11.6440   -14.2560 hn         1 TOJ       0.519000
     33 H9          53.0470   -12.3630   -13.8710 hn         1 TOJ       0.519000
     34 H10         58.1680   -14.5890   -14.2440 hn         1 TOJ       0.502000
     35 H11         59.2480   -16.4730   -14.4390 h1         1 TOJ       0.064700
     36 H12         56.6060   -17.8200   -14.4800 hc         1 TOJ       0.062200
     37 H13         58.1180   -18.3690   -15.1710 hc         1 TOJ       0.062200
     38 H14         58.9330   -16.0030   -11.7980 hc         1 TOJ       0.076700
     39 H15         56.6800   -17.4290   -11.8410 hc         1 TOJ       0.058200
     40 H16         57.9050   -18.3050   -10.9050 hc         1 TOJ       0.058200
     41 H17         60.4280   -17.9630   -11.4430 hc         1 TOJ       0.048200
     42 H18         60.7610   -17.4880   -13.1070 hc         1 TOJ       0.048200
     43 H4          59.5220   -19.9960   -12.1810 hc         1 TOJ       0.048200
@<TRIPOS>BOND
     1     1     3 ar  
     2     1    16 ar  
     3     1    26 1   
     4     2    12 2   
     5     3     5 ar  
     6     3    27 1   
     7     4     6 ar  
     8     4    16 ar  
     9     4    28 1   
    10     5     6 ar  
    11     5    12 1   
    12     6    13 1   
    13     7     8 2   
    14     7    12 1   
    15     7    17 1   
    16     8    18 1   
    17     8    19 1   
    18     9    17 1   
    19     9    18 2   
    20     9    20 1   
    21    10    11 1   
    22    10    25 1   
    23    10    29 1   
    24    10    43 1   
    25    11    22 1   
    26    11    24 1   
    27    11    30 1   
    28    13    14 1   
    29    13    15 1   
    30    16    31 1   
    31    19    32 1   
    32    19    33 1   
    33    20    21 1   
    34    20    34 1   
    35    21    22 1   
    36    21    23 1   
    37    21    35 1   
    38    22    36 1   
    39    22    37 1   
    40    23    24 1   
    41    23    25 1   
    42    23    38 1   
    43    24    39 1   
    44    24    40 1   
    45    25    41 1   
    46    25    42 1   
@<TRIPOS>SUBSTRUCTURE
     1 TOJ         1 TEMP              0 ****  ****    0 ROOT
