@<TRIPOS>MOLECULE
TOJ
   43    46     1     0     0
SMALL
No Charge or Current Charge


@<TRIPOS>ATOM
      1 C1          52.2800   -18.2160   -11.7780 ca         1 TOJ      -0.079000
      2 O2          51.9130   -13.9420   -13.7550 o          1 TOJ      -0.597100
      3 C3          52.7880   -17.0320   -12.3340 ca         1 TOJ      -0.097000
      4 C4          50.2220   -17.9260   -13.0370 ca         1 TOJ      -0.060000
      5 C5          52.0280   -16.2790   -13.2610 ca         1 TOJ      -0.077600
      6 C6          50.7270   -16.7380   -13.6120 ca         1 TOJ      -0.127200
      7 C7          54.0070   -14.9450   -14.1350 cc         1 TOJ      -0.476600
      8 C8          54.8440   -13.9450   -13.7600 cd         1 TOJ       0.710900
      9 C9          56.3630   -15.3590   -14.3100 cc         1 TOJ       0.793300
     10 C11         59.2510   -18.9320   -12.4280 c5         1 TOJ      -0.082400
     11 C12         57.8170   -18.8290   -13.0540 c5         1 TOJ      -0.075700
     12 C10         52.5790   -14.9700   -13.7920 c          1 TOJ       0.650300
     13 N4          49.8900   -16.0120   -14.6140 no         1 TOJ       0.674200
     14 O3          48.6720   -15.9440   -14.4030 o          1 TOJ      -0.388000
     15 O1          50.4160   -15.7210   -15.6970 o          1 TOJ      -0.388000
     16 C2          50.9970   -18.6620   -12.1270 ca         1 TOJ      -0.110000
     17 S1          54.9410   -16.3160   -14.6750 ss         1 TOJ      -0.090400
     18 N1          56.1730   -14.1250   -13.9290 nd         1 TOJ      -0.838000
     19 N2          54.5390   -12.7790   -13.2400 nv         1 TOJ      -1.047900
     20 N3          57.6410   -15.6310   -14.6460 nu         1 TOJ      -0.909100
     21 C17         58.4850   -16.7020   -14.0360 c5         1 TOJ       0.245500
     22 C16         57.9500   -18.1130   -14.4430 c5         1 TOJ      -0.090400
     23 C14         58.2950   -16.6780   -12.4750 c5         1 TOJ      -0.098700
     24 C13         57.1830   -17.7220   -12.1870 c5         1 TOJ      -0.086400
     25 C15         59.5280   -17.4710   -11.9280 c5         1 TOJ      -0.080400
     26 H1          52.8770   -18.7820   -11.0660 ha         1 TOJ       0.124000
     27 H2          53.7700   -16.6850   -12.0210 ha         1 TOJ       0.134000
     28 H3          49.2310   -18.2900   -13.3060 ha         1 TOJ       0.148000
     29 H5          60.0000   -19.2770   -13.1520 hc         1 TOJ       0.048200
     30 H6          57.2640   -19.7760   -13.0830 hc         1 TOJ       0.074700
     31 H7          50.6020   -19.5780   -11.6920 ha         1 TOJ       0.127000
     32 H8          55.2630   -12.0810   -13.3430 hn         1 TOJ       0.519000
     33 H9          53.5860   -12.4690   -13.3970 hn         1 TOJ       0.519000
     34 H10         58.0750   -14.7170   -14.7200 hn         1 TOJ       0.502000
     35 H11         59.5410   -16.5780   -14.3180 h1         1 TOJ       0.064700
     36 H12         56.9950   -18.0900   -14.9750 hc         1 TOJ       0.062200
     37 H13         58.6510   -18.6300   -15.1070 hc         1 TOJ       0.062200
     38 H14         58.1640   -15.6880   -12.0240 hc         1 TOJ       0.076700
     39 H15         56.1840   -17.4280   -12.5140 hc         1 TOJ       0.058200
     40 H16         57.1070   -17.9940   -11.1270 hc         1 TOJ       0.058200
     41 H17         59.5660   -17.4320   -10.8330 hc         1 TOJ       0.048200
     42 H18         60.4860   -17.0770   -12.2880 hc         1 TOJ       0.048200
     43 H4          59.2710   -19.6400   -11.5910 hc         1 TOJ       0.048200
@<TRIPOS>BOND
     1     1     3 ar  
     2     1    16 ar  
     3     1    26 1   
     4     2    12 2   
     5     3     5 ar  
     6     3    27 1   
     7     4     6 ar  
     8     4    16 ar  
     9     4    28 1   
    10     5     6 ar  
    11     5    12 1   
    12     6    13 1   
    13     7     8 2   
    14     7    12 1   
    15     7    17 1   
    16     8    18 1   
    17     8    19 1   
    18     9    17 1   
    19     9    18 2   
    20     9    20 1   
    21    10    11 1   
    22    10    25 1   
    23    10    29 1   
    24    10    43 1   
    25    11    22 1   
    26    11    24 1   
    27    11    30 1   
    28    13    14 1   
    29    13    15 1   
    30    16    31 1   
    31    19    32 1   
    32    19    33 1   
    33    20    21 1   
    34    20    34 1   
    35    21    22 1   
    36    21    23 1   
    37    21    35 1   
    38    22    36 1   
    39    22    37 1   
    40    23    24 1   
    41    23    25 1   
    42    23    38 1   
    43    24    39 1   
    44    24    40 1   
    45    25    41 1   
    46    25    42 1   
@<TRIPOS>SUBSTRUCTURE
     1 TOJ         1 TEMP              0 ****  ****    0 ROOT
