@<TRIPOS>MOLECULE
TOK
   61    66     1     0     0
SMALL
No Charge or Current Charge


@<TRIPOS>ATOM
      1 C1          -4.1310     1.6680    -0.6790 c6         1 TOK      -0.067400
      2 C2          -5.6600     1.8360    -0.4990 c6         1 TOK      -0.072400
      3 C3          -6.3890     0.5020    -0.7580 c6         1 TOK       0.173300
      4 O3          -7.7990     0.6740    -0.5820 oh         1 TOK      -0.659000
      5 C4          -5.8600    -0.5880     0.1990 c6         1 TOK      -0.074200
      6 C5          -4.3370    -0.7500     0.1190 c2         1 TOK      -0.104400
      7 C6          -3.7930    -1.9750    -0.0020 c2         1 TOK      -0.219200
      8 C7          -2.3030    -2.2570    -0.0710 c6         1 TOK      -0.037200
      9 C8          -1.4330    -1.0450     0.3460 c6         1 TOK      -0.040700
     10 C9          -2.0150     0.2780    -0.2710 c6         1 TOK      -0.047700
     11 C10         -3.4980     0.5490     0.2230 c6         1 TOK       0.003200
     12 C11         -1.0440     1.5130    -0.0950 c6         1 TOK      -0.071400
     13 C12          0.4360     1.2180    -0.4980 c6         1 TOK      -0.061400
     14 C13          0.9690    -0.0420     0.2390 c5         1 TOK      -0.010800
     15 C14          0.0280    -1.2260    -0.1410 c5         1 TOK      -0.066700
     16 C15          0.8820    -2.4580     0.2720 c5         1 TOK      -0.040200
     17 C16          2.2560    -1.9590    -0.1460 c2         1 TOK      -0.216200
     18 C17          2.3000    -0.6210    -0.2270 c2         1 TOK      -0.033300
     19 C18          1.0930     0.2550     1.7690 c3         1 TOK      -0.083100
     20 C19         -3.5380     0.9890     1.7280 c3         1 TOK      -0.080100
     21 N48          3.4550     0.1250    -0.5770 na         1 TOK      -0.097500
     22 C49          4.7300    -0.0030    -0.0930 ca         1 TOK      -0.075200
     23 C50          5.5340     0.8810    -0.7580 ca         1 TOK       0.066400
     24 N51          4.8280     1.6150    -1.6960 nc         1 TOK      -0.575100
     25 C52          3.5730     1.1310    -1.5560 cd         1 TOK       0.429700
     26 C53          5.2140    -0.8410     0.9240 ca         1 TOK      -0.111000
     27 C54          6.5850    -0.7680     1.2440 ca         1 TOK      -0.097000
     28 C55          7.4270     0.1340     0.5540 ca         1 TOK      -0.135000
     29 C56          6.9010     0.9700    -0.4550 ca         1 TOK      -0.049000
     30 H1          -3.9350     1.4430    -1.7360 hc         1 TOK       0.042700
     31 H1A         -3.6510     2.6350    -0.4810 hc         1 TOK       0.042700
     32 H2          -5.8900     2.2080     0.5080 hc         1 TOK       0.054200
     33 H2A         -6.0270     2.5980    -1.2000 hc         1 TOK       0.054200
     34 H3          -6.1800     0.1870    -1.7920 h1         1 TOK       0.030700
     35 HO3         -8.2180    -0.1820    -0.8220 ho         1 TOK       0.441000
     36 H4          -6.1460    -0.3420     1.2310 hc         1 TOK       0.051200
     37 H4A         -6.3550    -1.5430    -0.0260 hc         1 TOK       0.051200
     38 H6          -4.4320    -2.8570    -0.0560 ha         1 TOK       0.170000
     39 H7          -2.0630    -3.1160     0.5710 hc         1 TOK       0.047200
     40 H7A         -2.0610    -2.5650    -1.0980 hc         1 TOK       0.047200
     41 H8          -1.4380    -0.9820     1.4410 hc         1 TOK       0.058700
     42 H9          -2.0720     0.0990    -1.3540 hc         1 TOK       0.046700
     43 H11         -1.3960     2.3530    -0.7060 hc         1 TOK       0.043700
     44 H11A        -1.0590     1.8780     0.9380 hc         1 TOK       0.043700
     45 H12          0.4860     1.0630    -1.5840 hc         1 TOK       0.046200
     46 H12A         1.0660     2.0900    -0.2760 hc         1 TOK       0.046200
     47 H14         -0.0640    -1.2610    -1.2350 hc         1 TOK       0.050700
     48 H15          0.8340    -2.6800     1.3440 hc         1 TOK       0.057700
     49 H16          3.1000    -2.6060    -0.3900 ha         1 TOK       0.202000
     50 H18          0.1360     0.5000     2.2400 hc         1 TOK       0.041033
     51 H18A         1.5050    -0.6000     2.3170 hc         1 TOK       0.041033
     52 H18B         1.7690     1.0990     1.9460 hc         1 TOK       0.041033
     53 H19         -3.0500     0.2600     2.3840 hc         1 TOK       0.035700
     54 H19A        -3.0540     1.9580     1.8880 hc         1 TOK       0.035700
     55 H19B        -4.5630     1.1000     2.0980 hc         1 TOK       0.035700
     56 H52          2.7160     1.4430    -2.1400 h5         1 TOK       0.063800
     57 H53          4.5550    -1.5240     1.4560 ha         1 TOK       0.119000
     58 H54          6.9940    -1.4040     2.0260 ha         1 TOK       0.111000
     59 H55          8.4840     0.1890     0.8050 ha         1 TOK       0.113000
     60 H56          7.5400     1.6710    -0.9860 ha         1 TOK       0.128000
     61 H15A         0.5870    -3.3620    -0.2750 hc         1 TOK       0.057700
@<TRIPOS>BOND
     1     1     2 1   
     2     1    11 1   
     3     1    30 1   
     4     1    31 1   
     5     2     3 1   
     6     2    32 1   
     7     2    33 1   
     8     3     4 1   
     9     3     5 1   
    10     3    34 1   
    11     4    35 1   
    12     5     6 1   
    13     5    36 1   
    14     5    37 1   
    15     6     7 2   
    16     6    11 1   
    17     7     8 1   
    18     7    38 1   
    19     8     9 1   
    20     8    39 1   
    21     8    40 1   
    22     9    10 1   
    23     9    15 1   
    24     9    41 1   
    25    10    11 1   
    26    10    12 1   
    27    10    42 1   
    28    11    20 1   
    29    12    13 1   
    30    12    43 1   
    31    12    44 1   
    32    13    14 1   
    33    13    45 1   
    34    13    46 1   
    35    14    15 1   
    36    14    18 1   
    37    14    19 1   
    38    15    16 1   
    39    15    47 1   
    40    16    17 1   
    41    16    48 1   
    42    16    61 1   
    43    17    18 2   
    44    17    49 1   
    45    18    21 1   
    46    19    50 1   
    47    19    51 1   
    48    19    52 1   
    49    20    53 1   
    50    20    54 1   
    51    20    55 1   
    52    21    22 1   
    53    21    25 1   
    54    22    23 ar  
    55    22    26 ar  
    56    23    24 1   
    57    23    29 ar  
    58    24    25 2   
    59    25    56 1   
    60    26    27 ar  
    61    26    57 1   
    62    27    28 ar  
    63    27    58 1   
    64    28    29 ar  
    65    28    59 1   
    66    29    60 1   
@<TRIPOS>SUBSTRUCTURE
     1 TOK         1 TEMP              0 ****  ****    0 ROOT
