@<TRIPOS>MOLECULE
TOK
   61    66     1     0     0
SMALL
bcc


@<TRIPOS>ATOM
      1 C1          -4.0650     1.5960    -0.6650 c6         1 TOK      -0.067400
      2 C2          -5.5430     1.8210    -0.3770 c6         1 TOK      -0.072400
      3 C3          -6.3110     0.5220    -0.5250 c6         1 TOK       0.150100
      4 O3          -7.6760     0.7740    -0.2570 oh         1 TOK      -0.596800
      5 C4          -5.7290    -0.5250     0.4220 c6         1 TOK      -0.074200
      6 C5          -4.2500    -0.7200     0.2200 c2         1 TOK      -0.104400
      7 C6          -3.7430    -1.9420     0.0600 c2         1 TOK      -0.169200
      8 C7          -2.2900    -2.2510    -0.0890 c6         1 TOK      -0.037200
      9 C8          -1.3940    -1.0650     0.2520 c6         1 TOK      -0.040700
     10 C9          -1.9890     0.2190    -0.3540 c6         1 TOK      -0.047700
     11 C10         -3.3900     0.5340     0.2280 c6         1 TOK       0.003200
     12 C11         -1.0360     1.4270    -0.2930 c6         1 TOK      -0.071400
     13 C12          0.3980     1.1350    -0.7520 c6         1 TOK      -0.061400
     14 C13          0.9410    -0.0850    -0.0170 c5         1 TOK      -0.010800
     15 C14         -0.0030    -1.2580    -0.3150 c5         1 TOK      -0.066700
     16 C15          0.8270    -2.5030     0.0030 c5         1 TOK      -0.040200
     17 C16          2.2000    -2.0400    -0.4020 c2         1 TOK      -0.166200
     18 C17          2.2480    -0.7100    -0.4660 c2         1 TOK      -0.033300
     19 C18          1.1090     0.2170     1.4810 c3         1 TOK      -0.083100
     20 C19         -3.3010     1.0500     1.6750 c3         1 TOK      -0.080100
     21 N48          3.4140     0.0490    -0.6780 na         1 TOK      -0.097500
     22 C49          4.6040    -0.0400     0.0120 ca         1 TOK      -0.075200
     23 C50          5.4290     0.9420    -0.5580 ca         1 TOK       0.066400
     24 N51          4.7560     1.5980    -1.5630 nc         1 TOK      -0.575100
     25 C52          3.5800     1.0460    -1.5950 cd         1 TOK       0.429700
     26 C53          5.0180    -0.8430     1.0680 ca         1 TOK      -0.129000
     27 C54          6.3040    -0.6390     1.5360 ca         1 TOK      -0.115000
     28 C55          7.1470     0.3300     0.9700 ca         1 TOK      -0.153000
     29 C56          6.7240     1.1290    -0.0750 ca         1 TOK      -0.067000
     30 H1          -3.9560     1.2880    -1.7120 hc         1 TOK       0.042700
     31 H1A         -3.5330     2.5450    -0.5720 hc         1 TOK       0.042700
     32 H2          -5.6850     2.2140     0.6350 hc         1 TOK       0.054200
     33 H2A         -5.9380     2.5730    -1.0650 hc         1 TOK       0.054200
     34 H3          -6.1840     0.1630    -1.5580 h1         1 TOK       0.030700
     35 HO3         -8.1680    -0.0380    -0.4160 ho         1 TOK       0.402000
     36 H4          -5.9290    -0.1940     1.4480 hc         1 TOK       0.051200
     37 H4A         -6.2480    -1.4800     0.2950 hc         1 TOK       0.051200
     38 H6          -4.4230    -2.7890     0.0420 ha         1 TOK       0.120000
     39 H7          -2.0310    -3.1090     0.5390 hc         1 TOK       0.047200
     40 H7A         -2.0920    -2.5800    -1.1190 hc         1 TOK       0.047200
     41 H8          -1.3410    -0.9710     1.3430 hc         1 TOK       0.058700
     42 H9          -2.1400    -0.0050    -1.4200 hc         1 TOK       0.046700
     43 H11         -1.4340     2.2320    -0.9150 hc         1 TOK       0.043700
     44 H11A        -1.0040     1.8310     0.7200 hc         1 TOK       0.043700
     45 H12          0.4090     0.9480    -1.8320 hc         1 TOK       0.046200
     46 H12A         1.0170     2.0200    -0.5770 hc         1 TOK       0.046200
     47 H14         -0.1210    -1.2690    -1.4090 hc         1 TOK       0.050700
     48 H15          0.8080    -2.7600     1.0700 hc         1 TOK       0.057700
     49 H16          3.0370    -2.7050    -0.5690 ha         1 TOK       0.152000
     50 H18          0.2020     0.6020     1.9450 hc         1 TOK       0.041033
     51 H18A         1.4090    -0.6720     2.0390 hc         1 TOK       0.041033
     52 H18B         1.8870     0.9710     1.6240 hc         1 TOK       0.041033
     53 H19         -2.6840     0.3960     2.2930 hc         1 TOK       0.035700
     54 H19A        -2.8760     2.0540     1.7220 hc         1 TOK       0.035700
     55 H19B        -4.2820     1.1000     2.1480 hc         1 TOK       0.035700
     56 H52          2.7880     1.3110    -2.2800 h5         1 TOK       0.063800
     57 H53          4.3710    -1.5900     1.5090 ha         1 TOK       0.137000
     58 H54          6.6700    -1.2420     2.3570 ha         1 TOK       0.129000
     59 H55          8.1480     0.4520     1.3650 ha         1 TOK       0.131000
     60 H56          7.3730     1.8810    -0.5070 ha         1 TOK       0.146000
     61 H15A         0.4980    -3.3900    -0.5400 hc         1 TOK       0.057700
@<TRIPOS>BOND
     1     1     2 1   
     2     1    11 1   
     3     1    30 1   
     4     1    31 1   
     5     2     3 1   
     6     2    32 1   
     7     2    33 1   
     8     3     4 1   
     9     3     5 1   
    10     3    34 1   
    11     4    35 1   
    12     5     6 1   
    13     5    36 1   
    14     5    37 1   
    15     6     7 2   
    16     6    11 1   
    17     7     8 1   
    18     7    38 1   
    19     8     9 1   
    20     8    39 1   
    21     8    40 1   
    22     9    10 1   
    23     9    15 1   
    24     9    41 1   
    25    10    11 1   
    26    10    12 1   
    27    10    42 1   
    28    11    20 1   
    29    12    13 1   
    30    12    43 1   
    31    12    44 1   
    32    13    14 1   
    33    13    45 1   
    34    13    46 1   
    35    14    15 1   
    36    14    18 1   
    37    14    19 1   
    38    15    16 1   
    39    15    47 1   
    40    16    17 1   
    41    16    48 1   
    42    16    61 1   
    43    17    18 2   
    44    17    49 1   
    45    18    21 1   
    46    19    50 1   
    47    19    51 1   
    48    19    52 1   
    49    20    53 1   
    50    20    54 1   
    51    20    55 1   
    52    21    22 1   
    53    21    25 1   
    54    22    23 ar  
    55    22    26 ar  
    56    23    24 1   
    57    23    29 ar  
    58    24    25 2   
    59    25    56 1   
    60    26    27 ar  
    61    26    57 1   
    62    27    28 ar  
    63    27    58 1   
    64    28    29 ar  
    65    28    59 1   
    66    29    60 1   
@<TRIPOS>SUBSTRUCTURE
     1 TOK         1 TEMP              0 ****  ****    0 ROOT
