@<TRIPOS>MOLECULE
TOL
   37    38     1     0     0
SMALL
abcg2


@<TRIPOS>ATOM
      1 C1          -0.7950     0.0690     3.9370 c3         1 TOL       0.367300
      2 F1          -1.5320    -1.0440     4.1130 f          1 TOL      -0.120333
      3 F2          -0.0540     0.1870     5.0350 f          1 TOL      -0.120333
      4 F3          -1.6560     1.1040     3.9620 f          1 TOL      -0.120333
      5 C2          -0.0330     0.0180     2.6430 ca         1 TOL      -0.252300
      6 C3           1.3510     0.1260     2.5970 ca         1 TOL       0.204100
      7 O1           2.0350     0.3020     3.7290 os         1 TOL      -0.338100
      8 C4           3.4490     0.4100     3.6970 c3         1 TOL       0.155900
      9 C5           2.0170     0.0450     1.3510 ca         1 TOL      -0.222000
     10 C6           1.3190    -0.1230     0.1970 ca         1 TOL      -0.007000
     11 C7          -0.0890    -0.2130     0.1920 ca         1 TOL      -0.066000
     12 C8          -0.8030    -0.3740    -1.0260 ca         1 TOL      -0.046600
     13 C9          -2.1680    -0.4720    -1.0200 ca         1 TOL      -0.088000
     14 C10         -2.8590    -0.3950     0.1980 ca         1 TOL      -0.081000
     15 C11         -2.1990    -0.2390     1.3860 ca         1 TOL      -0.133000
     16 C12         -0.7820    -0.1440     1.4320 ca         1 TOL       0.041000
     17 C13         -0.0640    -0.4780    -2.3140 cs         1 TOL       0.378000
     18 S1           0.1950    -2.0110    -2.9230 s          1 TOL      -0.625400
     19 N1           0.3660     0.6370    -2.8700 n          1 TOL      -0.219800
     20 C14          0.0410     1.9660    -2.3830 c3         1 TOL       0.064300
     21 C15          1.0800     0.6080    -4.1280 c3         1 TOL      -0.090000
     22 C16          0.1410     0.5420    -5.3590 c          1 TOL       0.729000
     23 O2          -1.0730     0.6930    -5.1590 o          1 TOL      -0.710500
     24 O3           0.7300     0.3680    -6.4410 o          1 TOL      -0.710500
     25 H41          3.7580     0.5540     4.7290 h1         1 TOL       0.042033
     26 H42          3.9210    -0.4970     3.3130 h1         1 TOL       0.042033
     27 H43          3.7820     1.2670     3.1080 h1         1 TOL       0.042033
     28 H5           3.0940     0.1110     1.3000 ha         1 TOL       0.118000
     29 H6           1.8730    -0.1950    -0.7300 ha         1 TOL       0.137000
     30 H9          -2.7110    -0.6020    -1.9470 ha         1 TOL       0.149000
     31 H10         -3.9390    -0.4610     0.1990 ha         1 TOL       0.111000
     32 H11         -2.8030    -0.1890     2.2770 ha         1 TOL       0.117000
     33 H141        -0.6640     1.9310    -1.5610 h1         1 TOL       0.047700
     34 H142         0.9450     2.4770    -2.0510 h1         1 TOL       0.047700
     35 H143        -0.4060     2.5370    -3.1950 h1         1 TOL       0.047700
     36 H151         1.6870     1.5140    -4.1860 h1         1 TOL       0.055200
     37 H152         1.7600    -0.2430    -4.1380 h1         1 TOL       0.055200
@<TRIPOS>BOND
     1     1     2 1   
     2     1     3 1   
     3     1     4 1   
     4     1     5 1   
     5     5     6 ar  
     6     5    16 ar  
     7     6     7 1   
     8     6     9 ar  
     9     7     8 1   
    10     8    25 1   
    11     8    26 1   
    12     8    27 1   
    13     9    10 ar  
    14     9    28 1   
    15    10    11 ar  
    16    10    29 1   
    17    11    12 ar  
    18    11    16 ar  
    19    12    13 ar  
    20    12    17 1   
    21    13    14 ar  
    22    13    30 1   
    23    14    15 ar  
    24    14    31 1   
    25    15    16 ar  
    26    15    32 1   
    27    17    18 2   
    28    17    19 1   
    29    19    20 1   
    30    19    21 1   
    31    20    33 1   
    32    20    34 1   
    33    20    35 1   
    34    21    22 1   
    35    21    36 1   
    36    21    37 1   
    37    22    23 1   
    38    22    24 1   
@<TRIPOS>SUBSTRUCTURE
     1 TOL         1 TEMP              0 ****  ****    0 ROOT
