@<TRIPOS>MOLECULE
TOL
   37    38     1     0     0
SMALL
No Charge or Current Charge


@<TRIPOS>ATOM
      1 C1          -0.8140     0.1760     3.9830 c3         1 TOL       0.367300
      2 F1          -1.4350    -0.9800     4.3140 f          1 TOL      -0.120333
      3 F2          -0.0370     0.4830     5.0440 f          1 TOL      -0.120333
      4 F3          -1.7610     1.1430     3.9500 f          1 TOL      -0.120333
      5 C2          -0.0810     0.0540     2.6150 ca         1 TOL      -0.252300
      6 C3           1.3350     0.1870     2.5160 ca         1 TOL       0.204100
      7 O1           2.0940     0.4210     3.6490 os         1 TOL      -0.338100
      8 C4           3.5250     0.5690     3.6270 c3         1 TOL       0.155900
      9 C5           1.9680     0.0650     1.2660 ca         1 TOL      -0.222000
     10 C6           1.2300    -0.1690     0.1060 ca         1 TOL      -0.007000
     11 C7          -0.1710    -0.2830     0.1570 ca         1 TOL      -0.066000
     12 C8          -0.9120    -0.5140    -1.0380 ca         1 TOL      -0.046600
     13 C9          -2.2960    -0.7410    -0.9560 ca         1 TOL      -0.088000
     14 C10         -2.9520    -0.6850     0.2750 ca         1 TOL      -0.081000
     15 C11         -2.2330    -0.4080     1.4440 ca         1 TOL      -0.133000
     16 C12         -0.8280    -0.2060     1.4180 ca         1 TOL       0.041000
     17 C13         -0.2860    -0.5360    -2.4160 cs         1 TOL       0.378000
     18 S1          -0.3590    -1.9630    -3.3060 s          1 TOL      -0.625400
     19 N1           0.3770     0.6100    -2.8460 n          1 TOL      -0.219800
     20 C14          0.1950     1.9290    -2.1910 c3         1 TOL       0.064300
     21 C15          1.1510     0.6440    -4.1190 c3         1 TOL      -0.090000
     22 C16          0.3040     0.7680    -5.4060 c          1 TOL       0.729000
     23 O2          -0.6880     1.4840    -5.3900 o          1 TOL      -0.710500
     24 O3           0.6910     0.1770    -6.4050 o          1 TOL      -0.710500
     25 H41          3.9020     0.7520     4.6410 h1         1 TOL       0.042033
     26 H42          4.0070    -0.3410     3.2470 h1         1 TOL       0.042033
     27 H43          3.8210     1.4170     2.9970 h1         1 TOL       0.042033
     28 H5           3.0460     0.1470     1.1650 ha         1 TOL       0.118000
     29 H6           1.7720    -0.2740    -0.8300 ha         1 TOL       0.137000
     30 H9          -2.8690    -0.9390    -1.8600 ha         1 TOL       0.149000
     31 H10         -4.0260    -0.8490     0.3240 ha         1 TOL       0.111000
     32 H11         -2.8040    -0.3770     2.3650 ha         1 TOL       0.117000
     33 H141        -0.7980     1.9950    -1.7300 h1         1 TOL       0.047700
     34 H142         0.9630     2.0730    -1.4220 h1         1 TOL       0.047700
     35 H143         0.2820     2.7350    -2.9310 h1         1 TOL       0.047700
     36 H151         1.8460     1.4910    -4.1010 h1         1 TOL       0.055200
     37 H152         1.7550    -0.2690    -4.1930 h1         1 TOL       0.055200
@<TRIPOS>BOND
     1     1     2 1   
     2     1     3 1   
     3     1     4 1   
     4     1     5 1   
     5     5     6 ar  
     6     5    16 ar  
     7     6     7 1   
     8     6     9 ar  
     9     7     8 1   
    10     8    25 1   
    11     8    26 1   
    12     8    27 1   
    13     9    10 ar  
    14     9    28 1   
    15    10    11 ar  
    16    10    29 1   
    17    11    12 ar  
    18    11    16 ar  
    19    12    13 ar  
    20    12    17 1   
    21    13    14 ar  
    22    13    30 1   
    23    14    15 ar  
    24    14    31 1   
    25    15    16 ar  
    26    15    32 1   
    27    17    18 2   
    28    17    19 1   
    29    19    20 1   
    30    19    21 1   
    31    20    33 1   
    32    20    34 1   
    33    20    35 1   
    34    21    22 1   
    35    21    36 1   
    36    21    37 1   
    37    22    23 1   
    38    22    24 1   
@<TRIPOS>SUBSTRUCTURE
     1 TOL         1 TEMP              0 ****  ****    0 ROOT
