@<TRIPOS>MOLECULE
TOM
   24    24     1     0     0
SMALL
No Charge or Current Charge


@<TRIPOS>ATOM
      1 O8          26.8610    36.2690    27.4410 o          1 TOM      -0.566100
      2 C9          27.0340    37.4740    27.6490 c          1 TOM       0.444300
      3 C10         27.2040    38.5410    26.4340 c          1 TOM       0.650000
      4 O11         27.6150    38.1380    25.3470 o          1 TOM      -0.708000
      5 O10         26.9140    39.7190    26.6370 o          1 TOM      -0.708000
      6 C8          27.1370    38.0430    29.0420 ce         1 TOM      -0.212200
      7 C7          26.9590    37.3880    30.2310 cf         1 TOM      -0.168200
      8 C1          26.5370    36.0010    30.5030 ca         1 TOM      -0.051800
      9 C6          27.3740    35.1830    31.2850 ca         1 TOM      -0.084000
     10 C5          27.0070    33.8590    31.5760 ca         1 TOM      -0.165000
     11 C4          25.7910    33.3450    31.1000 ca         1 TOM      -0.086000
     12 C3          24.9350    34.1590    30.3410 ca         1 TOM      -0.209000
     13 C2          25.2970    35.4940    30.0410 ca         1 TOM       0.178100
     14 O2          24.4490    36.3380    29.3440 os         1 TOM      -0.310100
     15 C11         23.1850    35.9010    28.8190 c3         1 TOM       0.153900
     16 H8          27.4150    39.0950    29.0840 ha         1 TOM       0.178000
     17 H7          27.1340    37.9680    31.1390 ha         1 TOM       0.145000
     18 H6          28.3180    35.5730    31.6570 ha         1 TOM       0.103000
     19 H5          27.6650    33.2320    32.1730 ha         1 TOM       0.098000
     20 H4          25.5080    32.3200    31.3290 ha         1 TOM       0.093000
     21 H3          23.9920    33.7400    30.0010 ha         1 TOM       0.107000
     22 H111        22.5230    35.5630    29.6260 h1         1 TOM       0.038367
     23 H112        22.6870    36.7250    28.2930 h1         1 TOM       0.038367
     24 H113        23.3230    35.0770    28.1070 h1         1 TOM       0.038367
@<TRIPOS>BOND
     1     1     2 2   
     2     2     3 1   
     3     2     6 1   
     4     3     4 1   
     5     3     5 1   
     6     6     7 2   
     7     6    16 1   
     8     7     8 1   
     9     7    17 1   
    10     8     9 ar  
    11     8    13 ar  
    12     9    10 ar  
    13     9    18 1   
    14    10    11 ar  
    15    10    19 1   
    16    11    12 ar  
    17    11    20 1   
    18    12    13 ar  
    19    12    21 1   
    20    13    14 1   
    21    14    15 1   
    22    15    22 1   
    23    15    23 1   
    24    15    24 1   
@<TRIPOS>SUBSTRUCTURE
     1 TOM         1 TEMP              0 ****  ****    0 ROOT
