@<TRIPOS>MOLECULE
TOM
   24    24     1     0     0
SMALL
abcg2


@<TRIPOS>ATOM
      1 O8          26.8360    36.2600    27.3540 o          1 TOM      -0.566100
      2 C9          26.9350    37.4430    27.6500 c          1 TOM       0.444300
      3 C10         26.7140    38.5350    26.5930 c          1 TOM       0.650000
      4 O11         27.5660    38.6370    25.6850 o          1 TOM      -0.708000
      5 O10         25.6690    39.2070    26.7680 o          1 TOM      -0.708000
      6 C8          27.2870    37.9320    28.9970 ce         1 TOM      -0.212200
      7 C7          27.2100    37.2720    30.1630 cf         1 TOM      -0.168200
      8 C1          26.6320    35.9620    30.4770 ca         1 TOM      -0.051800
      9 C6          27.3300    35.1350    31.3620 ca         1 TOM      -0.084000
     10 C5          26.8680    33.8710    31.7050 ca         1 TOM      -0.165000
     11 C4          25.6590    33.4300    31.1820 ca         1 TOM      -0.086000
     12 C3          24.9140    34.2480    30.3390 ca         1 TOM      -0.209000
     13 C2          25.3840    35.5140    29.9890 ca         1 TOM       0.178100
     14 O2          24.6810    36.3790    29.2240 os         1 TOM      -0.310100
     15 C11         23.4500    35.9510    28.6490 c3         1 TOM       0.153900
     16 H8          27.7100    38.9320    29.0150 ha         1 TOM       0.178000
     17 H7          27.6590    37.7670    31.0210 ha         1 TOM       0.145000
     18 H6          28.2670    35.4950    31.7700 ha         1 TOM       0.103000
     19 H5          27.4410    33.2440    32.3760 ha         1 TOM       0.098000
     20 H4          25.2770    32.4500    31.4390 ha         1 TOM       0.093000
     21 H3          23.9640    33.8970    29.9640 ha         1 TOM       0.107000
     22 H111        22.7140    35.7110    29.4200 h1         1 TOM       0.038367
     23 H112        23.0960    36.7890    28.0540 h1         1 TOM       0.038367
     24 H113        23.6010    35.0810    28.0060 h1         1 TOM       0.038367
@<TRIPOS>BOND
     1     1     2 2   
     2     2     3 1   
     3     2     6 1   
     4     3     4 1   
     5     3     5 1   
     6     6     7 2   
     7     6    16 1   
     8     7     8 1   
     9     7    17 1   
    10     8     9 ar  
    11     8    13 ar  
    12     9    10 ar  
    13     9    18 1   
    14    10    11 ar  
    15    10    19 1   
    16    11    12 ar  
    17    11    20 1   
    18    12    13 ar  
    19    12    21 1   
    20    13    14 1   
    21    14    15 1   
    22    15    22 1   
    23    15    23 1   
    24    15    24 1   
@<TRIPOS>SUBSTRUCTURE
     1 TOM         1 TEMP              0 ****  ****    0 ROOT
