@<TRIPOS>MOLECULE
TON
   51    51     1     0     0
SMALL
abcg2


@<TRIPOS>ATOM
      1 C13          1.5570    -0.4160     0.7560 ca         1 TON      -0.075000
      2 C14          1.5110    -0.1800    -0.6040 ca         1 TON      -0.172500
      3 C15          0.4370     0.5160    -1.1630 ca         1 TON       0.142100
      4 O1           0.4700     0.7040    -2.4980 os         1 TON      -0.336100
      5 C1          -0.5940     1.4060    -3.1110 c3         1 TON       0.164600
      6 C2          -0.3050     1.5180    -4.5850 c3         1 TON       0.159600
      7 O2          -0.3200     0.2430    -5.1700 os         1 TON      -0.433000
      8 C3          -0.0150     0.2760    -6.5430 c3         1 TON       0.159600
      9 C4          -0.0520    -1.1190    -7.1130 c3         1 TON       0.163600
     10 O3          -1.3710    -1.6140    -7.0670 oh         1 TON      -0.709000
     11 C16         -0.5720     0.9640    -0.3220 ca         1 TON      -0.172500
     12 C17         -0.5030     0.7120     1.0480 ca         1 TON      -0.075000
     13 C18          0.5480     0.0120     1.6290 ca         1 TON      -0.106300
     14 C5           0.6790    -0.2560     3.1370 c3         1 TON       0.021300
     15 C8           1.8820     0.5730     3.6200 c3         1 TON      -0.082600
     16 C7           0.9740    -1.7450     3.3560 c3         1 TON      -0.082600
     17 C6          -0.6190     0.1790     3.8550 c3         1 TON      -0.060400
     18 C9          -0.9560    -0.1700     5.3280 c3         1 TON      -0.039000
     19 C12          0.1760     0.0770     6.3270 c3         1 TON      -0.085100
     20 C11         -1.4510    -1.6130     5.4780 c3         1 TON      -0.085100
     21 C10         -2.1250     0.7510     5.7100 c3         1 TON      -0.085100
     22 H13          2.4180    -0.9520     1.1380 ha         1 TON       0.110000
     23 H14          2.3110    -0.5330    -1.2420 ha         1 TON       0.119000
     24 H11         -1.5470     0.8900    -2.9470 h1         1 TON       0.043200
     25 H12         -0.6880     2.4170    -2.7000 h1         1 TON       0.043200
     26 H21         -1.0690     2.1710    -5.0290 h1         1 TON       0.030700
     27 H22          0.6640     2.0140    -4.7380 h1         1 TON       0.030700
     28 H31         -0.7210     0.9210    -7.0870 h1         1 TON       0.027700
     29 H32          0.9890     0.6880    -6.7120 h1         1 TON       0.027700
     30 H41          0.3270    -1.0570    -8.1410 h1         1 TON       0.026200
     31 H42          0.6440    -1.7590    -6.5560 h1         1 TON       0.026200
     32 HO3         -1.3710    -2.4960    -7.4490 ho         1 TON       0.501000
     33 H162        -1.4250     1.5100    -0.7000 ha         1 TON       0.119000
     34 H17         -1.3160     1.0920     1.6500 ha         1 TON       0.110000
     35 H81          1.7040     1.6410     3.4790 hc         1 TON       0.034533
     36 H82          2.1000     0.4050     4.6730 hc         1 TON       0.034533
     37 H83          2.7830     0.3130     3.0600 hc         1 TON       0.034533
     38 H71          0.1330    -2.3690     3.0480 hc         1 TON       0.034533
     39 H72          1.8480    -2.0710     2.7940 hc         1 TON       0.034533
     40 H73          1.1850    -1.9540     4.4050 hc         1 TON       0.034533
     41 H61         -1.4650    -0.2080     3.2770 hc         1 TON       0.038200
     42 H62         -0.6760     1.2700     3.7640 hc         1 TON       0.038200
     43 H121        -0.1920    -0.0720     7.3450 hc         1 TON       0.032144
     44 H122         1.0130    -0.6080     6.1850 hc         1 TON       0.032144
     45 H123         0.5610     1.0960     6.2630 hc         1 TON       0.032144
     46 H111        -0.6660    -2.3520     5.3320 hc         1 TON       0.032144
     47 H112        -1.8540    -1.7680     6.4820 hc         1 TON       0.032144
     48 H113        -2.2480    -1.8310     4.7640 hc         1 TON       0.032144
     49 H101        -1.8230     1.8000     5.6990 hc         1 TON       0.032144
     50 H102        -2.9620     0.6410     5.0160 hc         1 TON       0.032144
     51 H103        -2.4940     0.5190     6.7110 hc         1 TON       0.032144
@<TRIPOS>BOND
     1     1     2 ar  
     2     1    13 ar  
     3     1    22 1   
     4     2     3 ar  
     5     2    23 1   
     6     3     4 1   
     7     3    11 ar  
     8     4     5 1   
     9     5     6 1   
    10     5    24 1   
    11     5    25 1   
    12     6     7 1   
    13     6    26 1   
    14     6    27 1   
    15     7     8 1   
    16     8     9 1   
    17     8    28 1   
    18     8    29 1   
    19     9    10 1   
    20     9    30 1   
    21     9    31 1   
    22    10    32 1   
    23    11    12 ar  
    24    11    33 1   
    25    12    13 ar  
    26    12    34 1   
    27    13    14 1   
    28    14    15 1   
    29    14    16 1   
    30    14    17 1   
    31    15    35 1   
    32    15    36 1   
    33    15    37 1   
    34    16    38 1   
    35    16    39 1   
    36    16    40 1   
    37    17    18 1   
    38    17    41 1   
    39    17    42 1   
    40    18    19 1   
    41    18    20 1   
    42    18    21 1   
    43    19    43 1   
    44    19    44 1   
    45    19    45 1   
    46    20    46 1   
    47    20    47 1   
    48    20    48 1   
    49    21    49 1   
    50    21    50 1   
    51    21    51 1   
@<TRIPOS>SUBSTRUCTURE
     1 TON         1 TEMP              0 ****  ****    0 ROOT
