@<TRIPOS>MOLECULE
TON
   51    51     1     0     0
SMALL
No Charge or Current Charge


@<TRIPOS>ATOM
      1 C13          1.6590    -0.3570     0.7730 ca         1 TON      -0.075000
      2 C14          1.6170    -0.0970    -0.6070 ca         1 TON      -0.172500
      3 C15          0.5400     0.5940    -1.1700 ca         1 TON       0.142100
      4 O1           0.5550     0.8210    -2.5310 os         1 TON      -0.336100
      5 C1          -0.5090     1.5260    -3.2040 c3         1 TON       0.164600
      6 C2          -0.1780     1.6060    -4.7110 c3         1 TON       0.159600
      7 O2          -0.3210     0.2960    -5.2950 os         1 TON      -0.433000
      8 C3          -0.0260     0.2340    -6.7050 c3         1 TON       0.159600
      9 C4          -0.2280    -1.2210    -7.2070 c3         1 TON       0.163600
     10 O3          -1.6160    -1.6070    -7.1780 oh         1 TON      -0.709000
     11 C16         -0.5000     1.0390    -0.3330 ca         1 TON      -0.172500
     12 C17         -0.4610     0.7800     1.0490 ca         1 TON      -0.075000
     13 C18          0.6130     0.0570     1.6380 ca         1 TON      -0.106300
     14 C5           0.7030    -0.2410     3.1740 c3         1 TON       0.021300
     15 C8           1.8960     0.6060     3.7070 c3         1 TON      -0.082600
     16 C7           1.0130    -1.7510     3.3810 c3         1 TON      -0.082600
     17 C6          -0.6470     0.1570     3.9080 c3         1 TON      -0.060400
     18 C9          -1.0100    -0.2190     5.4030 c3         1 TON      -0.039000
     19 C12          0.1080     0.1160     6.4230 c3         1 TON      -0.085100
     20 C11         -1.4260    -1.7120     5.5590 c3         1 TON      -0.085100
     21 C10         -2.2570     0.6310     5.7860 c3         1 TON      -0.085100
     22 H13          2.5310    -0.8760     1.1610 ha         1 TON       0.110000
     23 H14          2.4330    -0.4310    -1.2440 ha         1 TON       0.119000
     24 H11         -1.4700     1.0140    -3.0680 h1         1 TON       0.043200
     25 H12         -0.6000     2.5450    -2.8080 h1         1 TON       0.043200
     26 H21         -0.8690     2.3120    -5.1890 h1         1 TON       0.030700
     27 H22          0.8440     1.9870    -4.8420 h1         1 TON       0.030700
     28 H31         -0.6780     0.9120    -7.2720 h1         1 TON       0.027700
     29 H32          1.0150     0.5310    -6.8890 h1         1 TON       0.027700
     30 H41          0.1570    -1.2890    -8.2340 h1         1 TON       0.026200
     31 H42          0.3740    -1.8980    -6.5860 h1         1 TON       0.026200
     32 HO3         -1.6550    -2.5540    -7.4500 ho         1 TON       0.501000
     33 H162        -1.3460     1.5900    -0.7320 ha         1 TON       0.119000
     34 H17         -1.2850     1.1670     1.6390 ha         1 TON       0.110000
     35 H81          1.6650     1.6770     3.6610 hc         1 TON       0.034533
     36 H82          2.1620     0.3580     4.7370 hc         1 TON       0.034533
     37 H83          2.8010     0.4390     3.1110 hc         1 TON       0.034533
     38 H71          0.1600    -2.3700     3.0760 hc         1 TON       0.034533
     39 H72          1.8860    -2.0850     2.8130 hc         1 TON       0.034533
     40 H73          1.2500    -1.9630     4.4270 hc         1 TON       0.034533
     41 H61         -1.4690    -0.2500     3.3070 hc         1 TON       0.038200
     42 H62         -0.7310     1.2480     3.8250 hc         1 TON       0.038200
     43 H121        -0.2630     0.0230     7.4510 hc         1 TON       0.032144
     44 H122         0.9540    -0.5730     6.3300 hc         1 TON       0.032144
     45 H123         0.4680     1.1430     6.2910 hc         1 TON       0.032144
     46 H111        -0.5760    -2.3970     5.4990 hc         1 TON       0.032144
     47 H112        -1.8920    -1.8840     6.5370 hc         1 TON       0.032144
     48 H113        -2.1530    -2.0020     4.7910 hc         1 TON       0.032144
     49 H101        -2.0330     1.7040     5.7420 hc         1 TON       0.032144
     50 H102        -3.0930     0.4320     5.1040 hc         1 TON       0.032144
     51 H103        -2.5960     0.4060     6.8050 hc         1 TON       0.032144
@<TRIPOS>BOND
     1     1     2 ar  
     2     1    13 ar  
     3     1    22 1   
     4     2     3 ar  
     5     2    23 1   
     6     3     4 1   
     7     3    11 ar  
     8     4     5 1   
     9     5     6 1   
    10     5    24 1   
    11     5    25 1   
    12     6     7 1   
    13     6    26 1   
    14     6    27 1   
    15     7     8 1   
    16     8     9 1   
    17     8    28 1   
    18     8    29 1   
    19     9    10 1   
    20     9    30 1   
    21     9    31 1   
    22    10    32 1   
    23    11    12 ar  
    24    11    33 1   
    25    12    13 ar  
    26    12    34 1   
    27    13    14 1   
    28    14    15 1   
    29    14    16 1   
    30    14    17 1   
    31    15    35 1   
    32    15    36 1   
    33    15    37 1   
    34    16    38 1   
    35    16    39 1   
    36    16    40 1   
    37    17    18 1   
    38    17    41 1   
    39    17    42 1   
    40    18    19 1   
    41    18    20 1   
    42    18    21 1   
    43    19    43 1   
    44    19    44 1   
    45    19    45 1   
    46    20    46 1   
    47    20    47 1   
    48    20    48 1   
    49    21    49 1   
    50    21    50 1   
    51    21    51 1   
@<TRIPOS>SUBSTRUCTURE
     1 TON         1 TEMP              0 ****  ****    0 ROOT
