@<TRIPOS>MOLECULE
TOP
   39    40     1     0     0
SMALL
bcc


@<TRIPOS>ATOM
      1 C1          -1.0850    -1.5330     3.0570 ca         1 TOP       0.500200
      2 N2          -1.7120    -0.9460     4.0750 nb         1 TOP      -0.802000
      3 C3          -1.2640     0.2680     4.3930 ca         1 TOP       0.927900
      4 N4          -1.8390     0.8810     5.4570 nv         1 TOP      -0.939500
      5 N5          -0.2810     0.9270     3.7800 nb         1 TOP      -0.855000
      6 C6           0.3270     0.3210     2.7650 ca         1 TOP       0.747200
      7 N7           1.3410     0.9820     2.1720 nv         1 TOP      -0.949500
      8 C8          -0.0480    -0.9780     2.3460 ca         1 TOP      -0.440900
      9 C9           0.6390    -1.6940     1.2240 c3         1 TOP       0.037200
     10 C10          0.4670    -1.0520    -0.1360 ca         1 TOP      -0.021300
     11 C11          1.5260    -1.0630    -1.0360 ca         1 TOP      -0.249000
     12 C12          1.3650    -0.5150    -2.3090 ca         1 TOP       0.159100
     13 O13          2.3260    -0.4820    -3.2480 os         1 TOP      -0.299900
     14 C14          3.5860    -1.0470    -2.9420 c3         1 TOP       0.122200
     15 C15          0.1410     0.0460    -2.6780 ca         1 TOP       0.021100
     16 O16         -0.0260     0.5610    -3.9250 os         1 TOP      -0.301900
     17 C17          0.2950     1.9420    -4.0290 c3         1 TOP       0.124700
     18 C18         -0.9150     0.0670    -1.7610 ca         1 TOP       0.159100
     19 O19         -2.0500     0.6370    -2.2000 os         1 TOP      -0.299900
     20 C20         -3.1540     0.7040    -1.3190 c3         1 TOP       0.122200
     21 C21         -0.7500    -0.4840    -0.4930 ca         1 TOP      -0.249000
     22 H1          -1.4370    -2.5260     2.7900 h4         1 TOP       0.015100
     23 HN41        -2.7280     0.5300     5.7690 hn         1 TOP       0.430800
     24 HN42        -1.6970     1.8720     5.5600 hn         1 TOP       0.430800
     25 HN71         1.4620     1.9540     2.4010 hn         1 TOP       0.432300
     26 HN72         1.6460     0.7120     1.2520 hn         1 TOP       0.432300
     27 H91          0.2520    -2.7160     1.1770 hc         1 TOP       0.056700
     28 H92          1.7080    -1.7960     1.4340 hc         1 TOP       0.056700
     29 H11          2.4690    -1.4990    -0.7330 ha         1 TOP       0.142000
     30 H141         4.2000    -0.9300    -3.8310 h1         1 TOP       0.042533
     31 H142         4.0720    -0.5340    -2.1080 h1         1 TOP       0.042533
     32 H143         3.5080    -2.1110    -2.7040 h1         1 TOP       0.042533
     33 H171         0.1320     2.2330    -5.0660 h1         1 TOP       0.033033
     34 H172        -0.3430     2.5560    -3.3890 h1         1 TOP       0.033033
     35 H173         1.3400     2.1350    -3.7730 h1         1 TOP       0.033033
     36 H201        -3.9570     1.1900    -1.8680 h1         1 TOP       0.042533
     37 H202        -3.4910    -0.2880    -1.0080 h1         1 TOP       0.042533
     38 H203        -2.9310     1.2970    -0.4280 h1         1 TOP       0.042533
     39 H21         -1.5560    -0.4750     0.2270 ha         1 TOP       0.142000
@<TRIPOS>BOND
     1     1     2 ar  
     2     1     8 ar  
     3     1    22 1   
     4     2     3 ar  
     5     3     4 1   
     6     3     5 ar  
     7     4    23 1   
     8     4    24 1   
     9     5     6 ar  
    10     6     7 1   
    11     6     8 ar  
    12     7    25 1   
    13     7    26 1   
    14     8     9 1   
    15     9    10 1   
    16     9    27 1   
    17     9    28 1   
    18    10    11 ar  
    19    10    21 ar  
    20    11    12 ar  
    21    11    29 1   
    22    12    13 1   
    23    12    15 ar  
    24    13    14 1   
    25    14    30 1   
    26    14    31 1   
    27    14    32 1   
    28    15    16 1   
    29    15    18 ar  
    30    16    17 1   
    31    17    33 1   
    32    17    34 1   
    33    17    35 1   
    34    18    19 1   
    35    18    21 ar  
    36    19    20 1   
    37    20    36 1   
    38    20    37 1   
    39    20    38 1   
    40    21    39 1   
@<TRIPOS>SUBSTRUCTURE
     1 TOP         1 TEMP              0 ****  ****    0 ROOT
