@<TRIPOS>MOLECULE
TOP
   39    40     1     0     0
SMALL
No Charge or Current Charge


@<TRIPOS>ATOM
      1 C1          -1.2540    -1.4970     3.0820 ca         1 TOP       0.171900
      2 N2          -1.7220    -0.8260     4.1520 nb         1 TOP      -0.276000
      3 C3          -1.0380     0.2710     4.5020 ca         1 TOP       0.401900
      4 N4          -1.5040     0.9510     5.5750 nv         1 TOP      -1.049900
      5 N5           0.0480     0.7810     3.9140 nb         1 TOP      -0.329000
      6 C6           0.5010     0.1060     2.8540 ca         1 TOP       0.418900
      7 N7           1.5950     0.6410     2.2620 nv         1 TOP      -1.059900
      8 C8          -0.1150    -1.0630     2.3790 ca         1 TOP      -0.310300
      9 C9           0.3980    -1.8470     1.1690 c3         1 TOP       0.037200
     10 C10          0.2550    -1.0620    -0.1330 ca         1 TOP      -0.021300
     11 C11          1.3790    -0.7840    -0.9270 ca         1 TOP      -0.231000
     12 C12          1.2600    -0.0540    -2.1330 ca         1 TOP       0.159100
     13 O13          2.3850     0.2060    -2.8990 os         1 TOP      -0.323100
     14 C14          3.7060    -0.2380    -2.5410 c3         1 TOP       0.145400
     15 C15         -0.0280     0.4100    -2.5470 ca         1 TOP       0.021100
     16 O16         -0.2730     1.1400    -3.7120 os         1 TOP      -0.325100
     17 C17          0.7270     1.5380    -4.6660 c3         1 TOP       0.147900
     18 C18         -1.1540     0.1220    -1.7390 ca         1 TOP       0.159100
     19 O19         -2.3950     0.5780    -2.1550 os         1 TOP      -0.323100
     20 C20         -3.6000     0.3470    -1.4030 c3         1 TOP       0.145400
     21 C21         -1.0070    -0.6110    -0.5430 ca         1 TOP      -0.231000
     22 H1          -1.8010    -2.3920     2.7890 h4         1 TOP       0.015100
     23 HN41        -2.4400     0.7380     5.9110 hn         1 TOP       0.486000
     24 HN42        -1.1590     1.8930     5.7390 hn         1 TOP       0.486000
     25 HN71         1.8440     1.5910     2.5190 hn         1 TOP       0.487500
     26 HN72         1.7780     0.3740     1.2990 hn         1 TOP       0.487500
     27 H91         -0.1460    -2.7950     1.0740 hc         1 TOP       0.056700
     28 H92          1.4440    -2.1330     1.3360 hc         1 TOP       0.056700
     29 H11          2.3440    -1.1520    -0.5920 ha         1 TOP       0.124000
     30 H141         4.4310     0.0830    -3.2990 h1         1 TOP       0.042533
     31 H142         4.0120     0.1850    -1.5770 h1         1 TOP       0.042533
     32 H143         3.7450    -1.3330    -2.4780 h1         1 TOP       0.042533
     33 H171         0.2620     2.1020    -5.4850 h1         1 TOP       0.033033
     34 H172         1.4800     2.1860    -4.1990 h1         1 TOP       0.033033
     35 H173         1.2230     0.6630    -5.1040 h1         1 TOP       0.033033
     36 H201        -4.4590     0.7970    -1.9140 h1         1 TOP       0.042533
     37 H202        -3.7930    -0.7280    -1.2960 h1         1 TOP       0.042533
     38 H203        -3.5280     0.7940    -0.4030 h1         1 TOP       0.042533
     39 H21         -1.8630    -0.8380     0.0840 ha         1 TOP       0.124000
@<TRIPOS>BOND
     1     1     2 ar  
     2     1     8 ar  
     3     1    22 1   
     4     2     3 ar  
     5     3     4 1   
     6     3     5 ar  
     7     4    23 1   
     8     4    24 1   
     9     5     6 ar  
    10     6     7 1   
    11     6     8 ar  
    12     7    25 1   
    13     7    26 1   
    14     8     9 1   
    15     9    10 1   
    16     9    27 1   
    17     9    28 1   
    18    10    11 ar  
    19    10    21 ar  
    20    11    12 ar  
    21    11    29 1   
    22    12    13 1   
    23    12    15 ar  
    24    13    14 1   
    25    14    30 1   
    26    14    31 1   
    27    14    32 1   
    28    15    16 1   
    29    15    18 ar  
    30    16    17 1   
    31    17    33 1   
    32    17    34 1   
    33    17    35 1   
    34    18    19 1   
    35    18    21 ar  
    36    19    20 1   
    37    20    36 1   
    38    20    37 1   
    39    20    38 1   
    40    21    39 1   
@<TRIPOS>SUBSTRUCTURE
     1 TOP         1 TEMP              0 ****  ****    0 ROOT
