@<TRIPOS>MOLECULE
TOQ
   28    29     1     0     0
SMALL
No Charge or Current Charge


@<TRIPOS>ATOM
      1 C           11.2150    29.4270    61.4060 c          1 TOQ       0.721000
      2 N           12.8870    27.7560    60.1860 n8         1 TOQ      -0.991200
      3 O           10.7320    28.4720    62.0070 o          1 TOQ      -0.733500
      4 O6           9.1120    25.1860    55.0330 oh         1 TOQ      -0.550100
      5 O7           7.3380    27.0670    56.0000 oh         1 TOQ      -0.573100
      6 CA          12.3720    29.1700    60.3430 c3         1 TOQ       0.026500
      7 CB          12.0140    29.8040    58.9670 c3         1 TOQ       0.025800
      8 CG          10.7100    29.3320    58.3660 cc         1 TOQ      -0.069400
      9 CD1          9.4620    29.9300    58.5100 cd         1 TOQ      -0.151100
     10 CD2         10.5010    28.1950    57.5110 ca         1 TOQ      -0.092800
     11 NE1          8.4900    29.1990    57.7830 na         1 TOQ      -0.233700
     12 CE2          9.1710    28.1470    57.1830 ca         1 TOQ      -0.055200
     13 CE3         11.4220    27.2510    57.0290 ca         1 TOQ      -0.016000
     14 CH2          9.5770    26.1720    55.8470 ca         1 TOQ       0.128100
     15 CZ2          8.6670    27.1350    56.3430 ca         1 TOQ      -0.033900
     16 CZ3         10.9450    26.2270    56.1850 ca         1 TOQ      -0.182000
     17 OXT         10.8980    30.5850    61.6490 o          1 TOQ      -0.733500
     18 HN          13.7880    27.7730    59.6960 hn         1 TOQ       0.378000
     19 HNA         13.1140    27.3820    61.1150 hn         1 TOQ       0.378000
     20 HO6          8.1470    25.3580    54.9460 ho         1 TOQ       0.464000
     21 HO7          6.8540    27.8020    56.4320 ho         1 TOQ       0.445000
     22 HA          13.2360    29.7300    60.7250 h1         1 TOQ      -0.005300
     23 HB          11.9720    30.8930    59.0890 hc         1 TOQ       0.026700
     24 HBA         12.8330    29.6240    58.2600 hc         1 TOQ       0.026700
     25 HD1          9.2000    30.8190    59.0790 h4         1 TOQ       0.237000
     26 HE3         12.4740    27.3070    57.2960 ha         1 TOQ       0.118000
     27 HZ3         11.6330    25.4810    55.7960 ha         1 TOQ       0.112000
     28 HNE1         7.5010    29.4150    57.7170 hn         1 TOQ       0.336000
@<TRIPOS>BOND
     1     1     3 1   
     2     1     6 1   
     3     1    17 1   
     4     2     6 1   
     5     2    18 1   
     6     2    19 1   
     7     4    14 1   
     8     4    20 1   
     9     5    15 1   
    10     5    21 1   
    11     6     7 1   
    12     6    22 1   
    13     7     8 1   
    14     7    23 1   
    15     7    24 1   
    16     8     9 2   
    17     8    10 1   
    18     9    11 1   
    19     9    25 1   
    20    10    12 ar  
    21    10    13 ar  
    22    11    12 1   
    23    11    28 1   
    24    12    15 ar  
    25    13    16 ar  
    26    13    26 1   
    27    14    15 ar  
    28    14    16 ar  
    29    16    27 1   
@<TRIPOS>SUBSTRUCTURE
     1 TOQ         1 TEMP              0 ****  ****    0 ROOT
