@<TRIPOS>MOLECULE
TOQ
   28    29     1     0     0
SMALL
abcg2


@<TRIPOS>ATOM
      1 C           11.3450    29.6900    61.4100 c          1 TOQ       0.721000
      2 N           12.5150    27.7720    60.3470 n8         1 TOQ      -0.991200
      3 O           10.9190    28.8460    62.2220 o          1 TOQ      -0.733500
      4 O6           9.1010    25.3310    54.8760 oh         1 TOQ      -0.550100
      5 O7           7.3470    27.1380    55.9910 oh         1 TOQ      -0.573100
      6 CA          12.3940    29.2190    60.3730 c3         1 TOQ       0.026500
      7 CB          12.0840    29.7550    58.9700 c3         1 TOQ       0.025800
      8 CG          10.7870    29.2910    58.3890 cc         1 TOQ      -0.069400
      9 CD1          9.5500    29.8330    58.5930 cd         1 TOQ      -0.151100
     10 CD2         10.5900    28.1950    57.4820 ca         1 TOQ      -0.092800
     11 NE1          8.6030    29.1420    57.8760 na         1 TOQ      -0.233700
     12 CE2          9.2120    28.1400    57.1860 ca         1 TOQ      -0.055200
     13 CE3         11.4460    27.2690    56.8750 ca         1 TOQ      -0.016000
     14 CH2          9.5470    26.2810    55.7330 ca         1 TOQ       0.128100
     15 CZ2          8.6750    27.1870    56.3180 ca         1 TOQ      -0.033900
     16 CZ3         10.9260    26.3330    56.0060 ca         1 TOQ      -0.182000
     17 OXT         11.0460    30.9020    61.3690 o          1 TOQ      -0.733500
     18 HN          13.4090    27.5120    59.9510 hn         1 TOQ       0.378000
     19 HNA         12.5000    27.4250    61.2960 hn         1 TOQ       0.378000
     20 HO6          8.1410    25.3910    54.8050 ho         1 TOQ       0.464000
     21 HO7          6.8120    27.0300    56.7860 ho         1 TOQ       0.445000
     22 HA          13.3380    29.7060    60.6780 h1         1 TOQ      -0.005300
     23 HB          12.1050    30.8450    59.0110 hc         1 TOQ       0.026700
     24 HBA         12.8990    29.4650    58.2990 hc         1 TOQ       0.026700
     25 HD1          9.2640    30.6720    59.2050 h4         1 TOQ       0.237000
     26 HE3         12.5090    27.2850    57.0800 ha         1 TOQ       0.118000
     27 HZ3         11.5750    25.6090    55.5270 ha         1 TOQ       0.112000
     28 HNE1         7.6250    29.3740    57.8430 hn         1 TOQ       0.336000
@<TRIPOS>BOND
     1     1     3 1   
     2     1     6 1   
     3     1    17 1   
     4     2     6 1   
     5     2    18 1   
     6     2    19 1   
     7     4    14 1   
     8     4    20 1   
     9     5    15 1   
    10     5    21 1   
    11     6     7 1   
    12     6    22 1   
    13     7     8 1   
    14     7    23 1   
    15     7    24 1   
    16     8     9 2   
    17     8    10 1   
    18     9    11 1   
    19     9    25 1   
    20    10    12 ar  
    21    10    13 ar  
    22    11    12 1   
    23    11    28 1   
    24    12    15 ar  
    25    13    16 ar  
    26    13    26 1   
    27    14    15 ar  
    28    14    16 ar  
    29    16    27 1   
@<TRIPOS>SUBSTRUCTURE
     1 TOQ         1 TEMP              0 ****  ****    0 ROOT
