@<TRIPOS>MOLECULE
TOR
   43    45     1     0     0
SMALL
No Charge or Current Charge


@<TRIPOS>ATOM
      1 CAT          0.8790     3.4280     0.7460 c3         1 TOR      -0.109600
      2 CAU          0.0620     2.3480     0.0090 c5         1 TOR       0.397000
      3 CAV         -1.2220     2.9510    -0.6030 c3         1 TOR      -0.109600
      4 OAR         -0.2560     1.2940     0.9420 os         1 TOR      -0.485000
      5 OAQ          0.8530     1.7450    -1.0480 os         1 TOR      -0.462000
      6 CAK          1.1260     0.3570    -0.7040 c5         1 TOR       0.094300
      7 CAG          2.5440     0.3710     0.0060 c5         1 TOR       0.128300
      8 OAF          3.4940    -0.0520    -1.0140 os         1 TOR      -0.469000
      9 CAE          3.7610    -1.4650    -0.8390 c5         1 TOR       0.390000
     10 CAD          5.2170    -1.6570    -0.3540 c3         1 TOR      -0.106100
     11 CAJ          3.4920    -2.2240    -2.1510 c3         1 TOR      -0.106100
     12 OAA          2.8320    -1.9080     0.1680 os         1 TOR      -0.455000
     13 CAB          2.6420    -0.7750     1.0340 c5         1 TOR       0.105300
     14 CAC          1.4370    -0.9120     1.9720 c6         1 TOR       0.161600
     15 OAH          0.2090    -0.9880     1.2360 os         1 TOR      -0.401000
     16 CAL         -0.0790     0.0400     0.2540 c5         1 TOR       0.379000
     17 CAM         -1.3730    -0.3950    -0.5230 c3         1 TOR       0.209600
     18 OAN         -2.5610     0.0880     0.1470 os         1 TOR      -0.532700
     19 SAO         -3.9920    -0.3140    -0.5150 s6         1 TOR       1.396800
     20 OAS         -4.8870     0.8380    -0.4910 o          1 TOR      -0.551000
     21 OAI         -3.8160    -1.1610    -1.6940 o          1 TOR      -0.551000
     22 NAP         -4.4740    -1.2560     0.7020 n8         1 TOR      -1.060100
     23 HAT          0.2380     4.0160     1.4130 hc         1 TOR       0.054367
     24 HATA         1.6710     2.9880     1.3610 hc         1 TOR       0.054367
     25 HATB         1.3450     4.1200     0.0350 hc         1 TOR       0.054367
     26 HAV         -1.0060     3.9020    -1.1050 hc         1 TOR       0.054367
     27 HAVA        -1.6720     2.2890    -1.3490 hc         1 TOR       0.054367
     28 HAVB        -1.9700     3.1480     0.1740 hc         1 TOR       0.054367
     29 HAK          1.1170    -0.2680    -1.6070 h1         1 TOR       0.098700
     30 HAG          2.8280     1.3460     0.4190 h1         1 TOR       0.091700
     31 HAD          5.4560    -1.0090     0.4970 hc         1 TOR       0.050533
     32 HADA         5.3930    -2.6950    -0.0490 hc         1 TOR       0.050533
     33 HADB         5.9280    -1.4210    -1.1540 hc         1 TOR       0.050533
     34 HAJ          4.1300    -1.8500    -2.9590 hc         1 TOR       0.050533
     35 HAJA         3.6930    -3.2950    -2.0320 hc         1 TOR       0.050533
     36 HAJB         2.4480    -2.1120    -2.4660 hc         1 TOR       0.050533
     37 HAB          3.5360    -0.6520     1.6610 h1         1 TOR       0.061700
     38 HAC          1.5410    -1.8140     2.5910 h1         1 TOR       0.072700
     39 HACA         1.3930    -0.0460     2.6470 h1         1 TOR       0.072700
     40 HAM         -1.3200    -0.0020    -1.5470 h1         1 TOR       0.068700
     41 HAMA        -1.3770    -1.4910    -0.5940 h1         1 TOR       0.068700
     42 HNAP        -3.7590    -0.9820     1.3700 hn         1 TOR       0.484000
     43 HNAA        -5.2910    -0.7260     0.9900 hn         1 TOR       0.484000
@<TRIPOS>BOND
     1     1     2 1   
     2     1    23 1   
     3     1    24 1   
     4     1    25 1   
     5     2     3 1   
     6     2     4 1   
     7     2     5 1   
     8     3    26 1   
     9     3    27 1   
    10     3    28 1   
    11     4    16 1   
    12     5     6 1   
    13     6     7 1   
    14     6    16 1   
    15     6    29 1   
    16     7     8 1   
    17     7    13 1   
    18     7    30 1   
    19     8     9 1   
    20     9    10 1   
    21     9    11 1   
    22     9    12 1   
    23    10    31 1   
    24    10    32 1   
    25    10    33 1   
    26    11    34 1   
    27    11    35 1   
    28    11    36 1   
    29    12    13 1   
    30    13    14 1   
    31    13    37 1   
    32    14    15 1   
    33    14    38 1   
    34    14    39 1   
    35    15    16 1   
    36    16    17 1   
    37    17    18 1   
    38    17    40 1   
    39    17    41 1   
    40    18    19 1   
    41    19    20 2   
    42    19    21 2   
    43    19    22 1   
    44    22    42 1   
    45    22    43 1   
@<TRIPOS>SUBSTRUCTURE
     1 TOR         1 TEMP              0 ****  ****    0 ROOT
