@<TRIPOS>MOLECULE
TOR
   43    45     1     0     0
SMALL
abcg2


@<TRIPOS>ATOM
      1 CAT          0.9790     3.4710     0.5950 c3         1 TOR      -0.109600
      2 CAU          0.0550     2.5020    -0.1240 c5         1 TOR       0.397000
      3 CAV         -1.1410     3.2140    -0.7290 c3         1 TOR      -0.109600
      4 OAR         -0.3720     1.5050     0.7890 os         1 TOR      -0.485000
      5 OAQ          0.7330     1.8040    -1.1570 os         1 TOR      -0.462000
      6 CAK          1.0700     0.5110    -0.7220 c5         1 TOR       0.094300
      7 CAG          2.5350     0.4090    -0.2380 c5         1 TOR       0.128300
      8 OAF          3.3080    -0.3540    -1.1360 os         1 TOR      -0.469000
      9 CAE          3.5410    -1.6520    -0.5920 c5         1 TOR       0.390000
     10 CAD          5.0380    -1.8470    -0.4120 c3         1 TOR      -0.106100
     11 CAJ          2.9290    -2.7140    -1.4860 c3         1 TOR      -0.106100
     12 OAA          2.8730    -1.6670     0.6490 os         1 TOR      -0.455000
     13 CAB          2.7310    -0.3330     1.0810 c5         1 TOR       0.105300
     14 CAC          1.5690    -0.2120     2.0300 c6         1 TOR       0.161600
     15 OAH          0.3580    -0.5680     1.3970 os         1 TOR      -0.401000
     16 CAL         -0.0190     0.2270     0.3360 c5         1 TOR       0.379000
     17 CAM         -1.2060    -0.4690    -0.3210 c3         1 TOR       0.209600
     18 OAN         -2.2570    -0.5340     0.6470 os         1 TOR      -0.532700
     19 SAO         -3.7720    -0.4050     0.1740 s6         1 TOR       1.396800
     20 OAS         -4.5090    -0.5620     1.4050 o          1 TOR      -0.551000
     21 OAI         -3.9600     0.7850    -0.6250 o          1 TOR      -0.551000
     22 NAP         -3.8950    -1.6810    -0.8450 n8         1 TOR      -1.060100
     23 HAT          0.4420     3.9870     1.3920 hc         1 TOR       0.054367
     24 HATA         1.8350     2.9630     1.0410 hc         1 TOR       0.054367
     25 HATB         1.3540     4.2250    -0.0970 hc         1 TOR       0.054367
     26 HAV         -0.8120     3.9520    -1.4600 hc         1 TOR       0.054367
     27 HAVA        -1.8150     2.5150    -1.2230 hc         1 TOR       0.054367
     28 HAVB        -1.7020     3.7380     0.0440 hc         1 TOR       0.054367
     29 HAK          0.9560    -0.1660    -1.5750 h1         1 TOR       0.098700
     30 HAG          2.9550     1.4170    -0.1840 h1         1 TOR       0.091700
     31 HAD          5.4560    -1.1190     0.2850 hc         1 TOR       0.050533
     32 HADA         5.2490    -2.8460    -0.0290 hc         1 TOR       0.050533
     33 HADB         5.5590    -1.7390    -1.3640 hc         1 TOR       0.050533
     34 HAJ          3.3770    -2.6810    -2.4780 hc         1 TOR       0.050533
     35 HAJA         3.1020    -3.7090    -1.0760 hc         1 TOR       0.050533
     36 HAJB         1.8520    -2.5680    -1.5890 hc         1 TOR       0.050533
     37 HAB          3.6370     0.0300     1.5860 h1         1 TOR       0.061700
     38 HAC          1.6880    -0.8910     2.8740 h1         1 TOR       0.072700
     39 HACA         1.5350     0.8050     2.4340 h1         1 TOR       0.072700
     40 HAM         -1.5110     0.0840    -1.2120 h1         1 TOR       0.068700
     41 HAMA        -0.9350    -1.4830    -0.6230 h1         1 TOR       0.068700
     42 HNAP        -3.9560    -2.5760    -0.3710 hn         1 TOR       0.484000
     43 HNAA        -4.6460    -1.5680    -1.5170 hn         1 TOR       0.484000
@<TRIPOS>BOND
     1     1     2 1   
     2     1    23 1   
     3     1    24 1   
     4     1    25 1   
     5     2     3 1   
     6     2     4 1   
     7     2     5 1   
     8     3    26 1   
     9     3    27 1   
    10     3    28 1   
    11     4    16 1   
    12     5     6 1   
    13     6     7 1   
    14     6    16 1   
    15     6    29 1   
    16     7     8 1   
    17     7    13 1   
    18     7    30 1   
    19     8     9 1   
    20     9    10 1   
    21     9    11 1   
    22     9    12 1   
    23    10    31 1   
    24    10    32 1   
    25    10    33 1   
    26    11    34 1   
    27    11    35 1   
    28    11    36 1   
    29    12    13 1   
    30    13    14 1   
    31    13    37 1   
    32    14    15 1   
    33    14    38 1   
    34    14    39 1   
    35    15    16 1   
    36    16    17 1   
    37    17    18 1   
    38    17    40 1   
    39    17    41 1   
    40    18    19 1   
    41    19    20 2   
    42    19    21 2   
    43    19    22 1   
    44    22    42 1   
    45    22    43 1   
@<TRIPOS>SUBSTRUCTURE
     1 TOR         1 TEMP              0 ****  ****    0 ROOT
