@<TRIPOS>MOLECULE
TOT
  115   122     1     0     0
SMALL
bcc


@<TRIPOS>ATOM
      1 C1          -3.5930     0.6830     1.8750 ca         1 TOT      -0.073500
      2 C2          -4.8740     1.1540     1.6380 ca         1 TOT      -0.110500
      3 C3          -5.5880     0.7250     0.5210 ca         1 TOT      -0.072000
      4 C4          -5.0500    -0.1790    -0.3800 ca         1 TOT      -0.108000
      5 N5          -3.0480    -1.5790    -0.8910 na         1 TOT      -0.108200
      6 C6          -3.5800    -2.2520    -2.0610 c3         1 TOT       0.006100
      7 C7          -1.8130    -1.8650    -0.4190 cc         1 TOT       0.342500
      8 C8          -0.9240    -2.6920    -1.0890 ce         1 TOT      -0.400600
      9 S9          -1.4970    -0.9760     1.0420 ss         1 TOT       0.000900
     10 C10         -3.0590    -0.2240     0.9750 ca         1 TOT      -0.087600
     11 C11         -3.7680    -0.6610    -0.1410 ca         1 TOT      -0.020700
     12 C12          2.5620    -4.1420    -1.0780 ca         1 TOT       0.148100
     13 C13          3.5250    -4.6210    -1.9820 ca         1 TOT      -0.186000
     14 C14          3.2440    -4.6900    -3.3230 ca         1 TOT      -0.028500
     15 C15          2.0010    -4.2750    -3.8080 ca         1 TOT      -0.111000
     16 C16          1.0580    -3.7950    -2.9370 ca         1 TOT      -0.067000
     17 C17          1.2980    -3.7120    -1.5510 ca         1 TOT      -0.111300
     18 C18          0.3160    -3.1690    -0.6310 cd         1 TOT       0.197800
     19 C19          0.6880    -3.1830     0.7250 cd         1 TOT      -0.262500
     20 C20          1.9150    -3.6280     1.1210 cc         1 TOT       0.120000
     21 N21          2.8430    -4.0800     0.2720 na         1 TOT      -0.460300
     22 C22          4.1790    -4.3520     0.8050 c3         1 TOT       0.210300
     23 C23          5.0610    -3.1170     0.6430 c3         1 TOT      -0.124400
     24 C24          6.3690    -3.3050     1.3910 c3         1 TOT       0.126300
     25 N25          7.2930    -2.1060     1.3640 n4         1 TOT      -0.611300
     26 C26          6.5280    -0.9060     1.8400 c3         1 TOT       0.117300
     27 C27          7.3180     0.3750     2.0720 c3         1 TOT      -0.108400
     28 C28          7.8210    -1.8960    -0.0150 c3         1 TOT       0.099350
     29 C29          8.4330    -2.4050     2.2780 c3         1 TOT       0.099350
     30 C31         -2.7000     0.6560    -3.6740 ca         1 TOT      -0.073500
     31 C32         -3.8490     0.5670    -4.4440 ca         1 TOT      -0.110500
     32 C33         -4.9780     1.3120    -4.1120 ca         1 TOT      -0.072000
     33 C34         -4.9900     2.1610    -3.0180 ca         1 TOT      -0.108000
     34 N35         -3.6240     3.0430    -1.1240 na         1 TOT      -0.108200
     35 C36         -4.6040     3.9840    -0.6130 c3         1 TOT       0.006100
     36 C37         -2.3940     2.9320    -0.5690 cc         1 TOT       0.342500
     37 S39         -1.4340     1.7810    -1.4450 ss         1 TOT       0.000900
     38 C40         -2.7180     1.5010    -2.5770 ca         1 TOT      -0.087600
     39 C41         -3.8380     2.2560    -2.2440 ca         1 TOT      -0.020700
     40 C42          0.7030     4.6940     2.9530 ca         1 TOT       0.148100
     41 C43          0.8530     5.4410     4.1320 ca         1 TOT      -0.186000
     42 C44         -0.2470     5.9490     4.7790 ca         1 TOT      -0.028500
     43 C45         -1.5290     5.7200     4.2760 ca         1 TOT      -0.111000
     44 C46         -1.6850     5.0090     3.1140 ca         1 TOT      -0.067000
     45 C47         -0.5860     4.4900     2.4020 ca         1 TOT      -0.111300
     46 C48         -0.7510     3.7690     1.1510 cd         1 TOT       0.197800
     47 C49          0.4400     3.2760     0.5930 cd         1 TOT      -0.262500
     48 C50          1.6520     3.4840     1.1870 cc         1 TOT       0.120000
     49 N51          1.8130     4.1560     2.3280 na         1 TOT      -0.460300
     50 C52          3.1410     4.3310     2.9400 c3         1 TOT       0.210300
     51 C53          4.2270     3.4900     2.2890 c3         1 TOT      -0.124400
     52 C54          5.5030     3.6240     3.1060 c3         1 TOT       0.126300
     53 N55          6.6720     2.8200     2.5800 n4         1 TOT      -0.611300
     54 C56          6.2470     1.3870     2.4620 c3         1 TOT       0.117300
     55 C58          7.7830     2.9580     3.5660 c3         1 TOT       0.099350
     56 C59          7.1210     3.3580     1.2630 c3         1 TOT       0.099350
     57 H1          -3.0240     1.0140     2.7330 ha         1 TOT       0.153000
     58 H2          -5.3180     1.8630     2.3230 ha         1 TOT       0.168500
     59 H3          -6.5840     1.1090     0.3440 ha         1 TOT       0.175500
     60 H4          -5.6250    -0.4870    -1.2420 ha         1 TOT       0.169500
     61 H61         -3.0000    -2.0030    -2.9470 h1         1 TOT       0.081700
     62 H62         -4.6030    -1.9400    -2.2300 h1         1 TOT       0.081700
     63 H63         -3.5650    -3.3300    -1.9090 h1         1 TOT       0.081700
     64 H8          -1.2270    -2.9590    -2.0890 ha         1 TOT       0.165000
     65 H13          4.4980    -4.9430    -1.6400 ha         1 TOT       0.142000
     66 H14          3.9970    -5.0630    -4.0040 ha         1 TOT       0.175000
     67 H15          1.7850    -4.3240    -4.8670 ha         1 TOT       0.179500
     68 H16          0.1130    -3.4650    -3.3420 ha         1 TOT       0.152500
     69 H19          0.0030    -2.9100     1.5110 ha         1 TOT       0.165500
     70 H20          2.1830    -3.6350     2.1680 h4         1 TOT       0.153000
     71 H221         4.0580    -4.5960     1.8590 h1         1 TOT       0.095450
     72 H222         4.6000    -5.2350     0.3290 h1         1 TOT       0.095450
     73 H231         4.5010    -2.2750     1.0500 hc         1 TOT       0.067450
     74 H232         5.2320    -2.9180    -0.4160 hc         1 TOT       0.067450
     75 H241         6.9410    -4.1380     0.9810 hx         1 TOT       0.114450
     76 H242         6.1750    -3.5110     2.4450 hx         1 TOT       0.114450
     77 H261         5.7670    -0.7110     1.0880 hx         1 TOT       0.092950
     78 H262         6.0290    -1.2120     2.7620 hx         1 TOT       0.092950
     79 H271         8.0540     0.2530     2.8660 hc         1 TOT       0.096200
     80 H272         7.8340     0.6830     1.1620 hc         1 TOT       0.096200
     81 H281         8.2920    -2.8160    -0.3500 hx         1 TOT       0.107950
     82 H282         7.0110    -1.6300    -0.6880 hx         1 TOT       0.107950
     83 H283         8.5580    -1.0990    -0.0050 hx         1 TOT       0.107950
     84 H291         8.0620    -2.4810     3.2970 hx         1 TOT       0.107950
     85 H292         8.8820    -3.3480     1.9760 hx         1 TOT       0.107950
     86 H293         9.1760    -1.6170     2.2070 hx         1 TOT       0.107950
     87 H31         -1.8170     0.0800    -3.9180 ha         1 TOT       0.153000
     88 H32         -3.8660    -0.0870    -5.3050 ha         1 TOT       0.168500
     89 H33         -5.8700     1.2310    -4.7190 ha         1 TOT       0.175500
     90 H34         -5.8830     2.7230    -2.7830 ha         1 TOT       0.169500
     91 H361        -5.4820     3.9770    -1.2470 h1         1 TOT       0.081700
     92 H362        -4.9090     3.7130     0.3960 h1         1 TOT       0.081700
     93 H363        -4.1920     4.9920    -0.6110 h1         1 TOT       0.081700
     94 H38         -2.8250     4.1930     1.0200 ha         1 TOT       0.165000
     95 H43          1.8300     5.6380     4.5450 ha         1 TOT       0.142000
     96 H44         -0.1100     6.5240     5.6850 ha         1 TOT       0.175000
     97 H45         -2.3960     6.1020     4.7970 ha         1 TOT       0.179500
     98 H46         -2.6890     4.8430     2.7550 ha         1 TOT       0.152500
     99 H49          0.4750     2.7560    -0.3490 ha         1 TOT       0.165500
    100 H50          2.5360     3.0950     0.7080 h4         1 TOT       0.153000
    101 H521         3.0560     4.0420     3.9870 h1         1 TOT       0.095450
    102 H522         3.4040     5.3900     2.9020 h1         1 TOT       0.095450
    103 H531         3.8960     2.4530     2.2750 hc         1 TOT       0.067450
    104 H532         4.3990     3.8150     1.2620 hc         1 TOT       0.067450
    105 H541         5.8380     4.6620     3.1400 hx         1 TOT       0.114450
    106 H542         5.3380     3.2860     4.1300 hx         1 TOT       0.114450
    107 H561         5.4600     1.3650     1.7120 hx         1 TOT       0.092950
    108 H562         5.8070     1.1150     3.4230 hx         1 TOT       0.092950
    109 H581         7.4810     2.5060     4.5080 hx         1 TOT       0.107950
    110 H582         7.9910     4.0150     3.7120 hx         1 TOT       0.107950
    111 H583         8.6750     2.4690     3.1850 hx         1 TOT       0.107950
    112 H591         7.3080     4.4230     1.3670 hx         1 TOT       0.107950
    113 H592         6.3590     3.1840     0.5100 hx         1 TOT       0.107950
    114 H593         8.0400     2.8620     0.9660 hx         1 TOT       0.107950
    115 C38         -2.0190     3.6450     0.5610 ce         1 TOT      -0.400600
@<TRIPOS>BOND
     1     1     2 ar  
     2     1    10 ar  
     3     1    57 1   
     4     2     3 ar  
     5     2    58 1   
     6     3     4 ar  
     7     3    59 1   
     8     4    11 ar  
     9     4    60 1   
    10     5     6 1   
    11     5     7 2   
    12     5    11 1   
    13     6    61 1   
    14     6    62 1   
    15     6    63 1   
    16     7     8 1   
    17     7     9 1   
    18     8    18 2   
    19     8    64 1   
    20     9    10 1   
    21    10    11 ar  
    22    12    13 ar  
    23    12    17 ar  
    24    12    21 1   
    25    13    14 ar  
    26    13    65 1   
    27    14    15 ar  
    28    14    66 1   
    29    15    16 ar  
    30    15    67 1   
    31    16    17 ar  
    32    16    68 1   
    33    17    18 1   
    34    18    19 1   
    35    19    20 2   
    36    19    69 1   
    37    20    21 1   
    38    20    70 1   
    39    21    22 1   
    40    22    23 1   
    41    22    71 1   
    42    22    72 1   
    43    23    24 1   
    44    23    73 1   
    45    23    74 1   
    46    24    25 1   
    47    24    75 1   
    48    24    76 1   
    49    25    26 1   
    50    25    28 1   
    51    25    29 1   
    52    26    27 1   
    53    26    77 1   
    54    26    78 1   
    55    27    54 1   
    56    27    79 1   
    57    27    80 1   
    58    28    81 1   
    59    28    82 1   
    60    28    83 1   
    61    29    84 1   
    62    29    85 1   
    63    29    86 1   
    64    30    31 ar  
    65    30    38 ar  
    66    30    87 1   
    67    31    32 ar  
    68    31    88 1   
    69    32    33 ar  
    70    32    89 1   
    71    33    39 ar  
    72    33    90 1   
    73    34    35 1   
    74    34    36 2   
    75    34    39 1   
    76    35    91 1   
    77    35    92 1   
    78    35    93 1   
    79    36    37 1   
    80    36   115 1   
    81    37    38 1   
    82    38    39 ar  
    83    40    41 ar  
    84    40    45 ar  
    85    40    49 1   
    86    41    42 ar  
    87    41    95 1   
    88    42    43 ar  
    89    42    96 1   
    90    43    44 ar  
    91    43    97 1   
    92    44    45 ar  
    93    44    98 1   
    94    45    46 1   
    95    46    47 1   
    96    46   115 2   
    97    47    48 2   
    98    47    99 1   
    99    48    49 1   
   100    48   100 1   
   101    49    50 1   
   102    50    51 1   
   103    50   101 1   
   104    50   102 1   
   105    51    52 1   
   106    51   103 1   
   107    51   104 1   
   108    52    53 1   
   109    52   105 1   
   110    52   106 1   
   111    53    54 1   
   112    53    55 1   
   113    53    56 1   
   114    54   107 1   
   115    54   108 1   
   116    55   109 1   
   117    55   110 1   
   118    55   111 1   
   119    56   112 1   
   120    56   113 1   
   121    56   114 1   
   122    94   115 1   
@<TRIPOS>SUBSTRUCTURE
     1 TOT         1 TEMP              0 ****  ****    0 ROOT
