@<TRIPOS>MOLECULE
TOT
  115   122     1     0     0
SMALL
No Charge or Current Charge


@<TRIPOS>ATOM
      1 C1          -4.0350     0.6580     2.3190 ca         1 TOT      -0.055500
      2 C2          -5.4050     0.9530     2.1840 ca         1 TOT      -0.092500
      3 C3          -6.1300     0.4660     1.0760 ca         1 TOT      -0.054000
      4 C4          -5.4870    -0.3160     0.0950 ca         1 TOT      -0.090000
      5 N5          -3.3320    -1.3450    -0.6300 na         1 TOT      -0.137500
      6 C6          -3.9120    -1.9820    -1.8290 c3         1 TOT       0.035400
      7 C7          -1.9990    -1.4070    -0.2200 cc         1 TOT       0.342500
      8 C8          -0.9320    -2.0510    -0.9790 ce         1 TOT      -0.450600
      9 S9          -1.7020    -0.5950     1.3380 ss         1 TOT       0.127800
     10 C10         -3.4130    -0.1210     1.3300 ca         1 TOT      -0.214500
     11 C11         -4.1160    -0.6010     0.2390 ca         1 TOT      -0.020700
     12 C12          2.1460    -4.1600    -1.0440 ca         1 TOT       0.286500
     13 C13          3.1070    -4.7190    -1.9200 ca         1 TOT      -0.168000
     14 C14          3.0190    -4.5350    -3.3080 ca         1 TOT      -0.010500
     15 C15          1.9560    -3.7990    -3.8440 ca         1 TOT      -0.093000
     16 C16          0.9810    -3.2570    -2.9940 ca         1 TOT      -0.049000
     17 C17          1.0740    -3.4310    -1.5900 ca         1 TOT      -0.111300
     18 C18          0.0620    -2.9490    -0.6490 cd         1 TOT       0.197800
     19 C19          0.0740    -3.4740     0.6800 cd         1 TOT      -0.312500
     20 C20          1.1110    -4.2530     1.1720 cc         1 TOT       0.070000
     21 N21          2.2550    -4.3240     0.3560 na         1 TOT      -0.598700
     22 C22          3.6030    -4.5030     0.9660 c3         1 TOT       0.210300
     23 C23          4.4890    -3.2520     0.7900 c3         1 TOT      -0.124400
     24 C24          5.8380    -3.3530     1.5350 c3         1 TOT       0.098100
     25 N25          6.8060    -2.1620     1.3990 n4         1 TOT      -0.498500
     26 C26          6.1160    -0.8760     1.8890 c3         1 TOT       0.089100
     27 C27          6.9190     0.4380     1.8590 c3         1 TOT      -0.108400
     28 C28          7.2430    -2.0140    -0.0720 c3         1 TOT       0.071150
     29 C29          8.0490    -2.4500     2.2590 c3         1 TOT       0.071150
     30 C31         -1.1880     0.4040    -3.8350 ca         1 TOT      -0.055500
     31 C32         -2.2500     0.1760    -4.7300 ca         1 TOT      -0.092500
     32 C33         -3.5340     0.6910    -4.4520 ca         1 TOT      -0.054000
     33 C34         -3.7620     1.4340    -3.2760 ca         1 TOT      -0.090000
     34 N35         -2.7400     2.3560    -1.1940 na         1 TOT      -0.137500
     35 C36         -3.9790     3.0270    -0.7520 c3         1 TOT       0.035400
     36 C37         -1.5120     2.3600    -0.5300 cc         1 TOT       0.342500
     37 S39         -0.2220     1.5220    -1.4280 ss         1 TOT       0.127800
     38 C40         -1.4360     1.1420    -2.6680 ca         1 TOT      -0.214500
     39 C41         -2.6910     1.6520    -2.3870 ca         1 TOT      -0.020700
     40 C42          0.8480     5.0490     3.0190 ca         1 TOT       0.286500
     41 C43          0.8830     5.6770     4.2850 ca         1 TOT      -0.168000
     42 C44         -0.2010     5.5730     5.1700 ca         1 TOT      -0.010500
     43 C45         -1.3420     4.8540     4.7910 ca         1 TOT      -0.093000
     44 C46         -1.4050     4.2580     3.5220 ca         1 TOT      -0.049000
     45 C47         -0.3080     4.3540     2.6300 ca         1 TOT      -0.111300
     46 C48         -0.3320     3.8500     1.2560 cd         1 TOT       0.197800
     47 C49          0.6460     4.3560     0.3420 cd         1 TOT      -0.312500
     48 C50          1.7370     5.1120     0.7540 cc         1 TOT       0.070000
     49 N51          1.9500     5.1260     2.1450 na         1 TOT      -0.598700
     50 C52          3.3240     5.1800     2.7230 c3         1 TOT       0.210300
     51 C53          4.2780     4.1520     2.0760 c3         1 TOT      -0.124400
     52 C54          5.6420     4.0610     2.7960 c3         1 TOT       0.098100
     53 N55          6.6590     3.0370     2.2550 n4         1 TOT      -0.498500
     54 C56          6.0480     1.6260     2.3110 c3         1 TOT       0.089100
     55 C58          7.9190     3.1000     3.1350 c3         1 TOT       0.071150
     56 C59          7.0430     3.4030     0.8080 c3         1 TOT       0.071150
     57 H1          -3.4730     1.0240     3.1750 ha         1 TOT       0.135000
     58 H2          -5.9060     1.5540     2.9390 ha         1 TOT       0.150500
     59 H3          -7.1890     0.6940     0.9790 ha         1 TOT       0.157500
     60 H4          -6.0560    -0.6850    -0.7560 ha         1 TOT       0.151500
     61 H61         -4.3310    -1.2150    -2.4900 h1         1 TOT       0.081700
     62 H62         -4.7080    -2.6750    -1.5290 h1         1 TOT       0.081700
     63 H63         -3.1460    -2.5440    -2.3770 h1         1 TOT       0.081700
     64 H8          -0.9500    -1.7270    -2.0110 ha         1 TOT       0.215000
     65 H13          3.9350    -5.3100    -1.5440 ha         1 TOT       0.124000
     66 H14          3.7680    -4.9690    -3.9670 ha         1 TOT       0.157000
     67 H15          1.8770    -3.6630    -4.9210 ha         1 TOT       0.161500
     68 H16          0.1520    -2.7290    -3.4530 ha         1 TOT       0.134500
     69 H19         -0.7460    -3.2570     1.3530 ha         1 TOT       0.215500
     70 H20          1.1620    -4.6400     2.1890 h4         1 TOT       0.203000
     71 H221         3.4820    -4.6880     2.0420 h1         1 TOT       0.095450
     72 H222         4.1020    -5.3920     0.5590 h1         1 TOT       0.095450
     73 H231         3.9320    -2.3840     1.1600 hc         1 TOT       0.067450
     74 H232         4.6740    -3.0830    -0.2760 hc         1 TOT       0.067450
     75 H241         6.3650    -4.2450     1.1850 hx         1 TOT       0.114450
     76 H242         5.6350    -3.4890     2.6010 hx         1 TOT       0.114450
     77 H261         5.2250    -0.7370     1.2730 hx         1 TOT       0.092950
     78 H262         5.7840    -1.0570     2.9140 hx         1 TOT       0.092950
     79 H271         7.7940     0.3520     2.5120 hc         1 TOT       0.096200
     80 H272         7.2820     0.6190     0.8420 hc         1 TOT       0.096200
     81 H281         7.6750    -2.9550    -0.4170 hx         1 TOT       0.107950
     82 H282         6.3760    -1.7620    -0.6850 hx         1 TOT       0.107950
     83 H283         7.9890    -1.2220    -0.1520 hx         1 TOT       0.107950
     84 H291         7.7540    -2.5390     3.3060 hx         1 TOT       0.107950
     85 H292         8.5100    -3.3840     1.9290 hx         1 TOT       0.107950
     86 H293         8.7660    -1.6340     2.1490 hx         1 TOT       0.107950
     87 H31         -0.1930     0.0150    -4.0480 ha         1 TOT       0.135000
     88 H32         -2.0790    -0.3940    -5.6410 ha         1 TOT       0.150500
     89 H33         -4.3510     0.5140    -5.1490 ha         1 TOT       0.157500
     90 H34         -4.7550     1.8260    -3.0720 ha         1 TOT       0.151500
     91 H361        -4.2880     3.7620    -1.5060 h1         1 TOT       0.081700
     92 H362        -4.7750     2.2860    -0.6220 h1         1 TOT       0.081700
     93 H363        -3.8190     3.5470     0.2000 h1         1 TOT       0.081700
     94 H38         -2.0380     2.6650     1.4850 ha         1 TOT       0.215000
     95 H43          1.7430     6.2640     4.5920 ha         1 TOT       0.124000
     96 H44         -0.1610     6.0560     6.1450 ha         1 TOT       0.157000
     97 H45         -2.1890     4.7800     5.4700 ha         1 TOT       0.161500
     98 H46         -2.3260     3.7550     3.2440 ha         1 TOT       0.134500
     99 H49          0.5570     4.1460    -0.7160 ha         1 TOT       0.215500
    100 H50          2.5140     5.4920     0.0930 h4         1 TOT       0.203000
    101 H521         3.2920     4.9580     3.7980 h1         1 TOT       0.095450
    102 H522         3.7320     6.1930     2.6020 h1         1 TOT       0.095450
    103 H531         3.7880     3.1720     2.0980 hc         1 TOT       0.067450
    104 H532         4.4380     4.4130     1.0250 hc         1 TOT       0.067450
    105 H541         6.1190     5.0450     2.7670 hx         1 TOT       0.114450
    106 H542         5.4630     3.8160     3.8470 hx         1 TOT       0.114450
    107 H561         5.1520     1.6400     1.6870 hx         1 TOT       0.092950
    108 H562         5.7300     1.4500     3.3410 hx         1 TOT       0.092950
    109 H581         7.6610     2.8250     4.1600 hx         1 TOT       0.107950
    110 H582         8.3230     4.1150     3.1200 hx         1 TOT       0.107950
    111 H583         8.6690     2.4070     2.7480 hx         1 TOT       0.107950
    112 H591         7.4190     4.4270     0.7810 hx         1 TOT       0.107950
    113 H592         6.1650     3.3170     0.1660 hx         1 TOT       0.107950
    114 H593         7.8200     2.7220     0.4550 hx         1 TOT       0.107950
    115 C38         -1.2820     2.9740     0.7740 ce         1 TOT      -0.450600
@<TRIPOS>BOND
     1     1     2 ar  
     2     1    10 ar  
     3     1    57 1   
     4     2     3 ar  
     5     2    58 1   
     6     3     4 ar  
     7     3    59 1   
     8     4    11 ar  
     9     4    60 1   
    10     5     6 1   
    11     5     7 2   
    12     5    11 1   
    13     6    61 1   
    14     6    62 1   
    15     6    63 1   
    16     7     8 1   
    17     7     9 1   
    18     8    18 2   
    19     8    64 1   
    20     9    10 1   
    21    10    11 ar  
    22    12    13 ar  
    23    12    17 ar  
    24    12    21 1   
    25    13    14 ar  
    26    13    65 1   
    27    14    15 ar  
    28    14    66 1   
    29    15    16 ar  
    30    15    67 1   
    31    16    17 ar  
    32    16    68 1   
    33    17    18 1   
    34    18    19 1   
    35    19    20 2   
    36    19    69 1   
    37    20    21 1   
    38    20    70 1   
    39    21    22 1   
    40    22    23 1   
    41    22    71 1   
    42    22    72 1   
    43    23    24 1   
    44    23    73 1   
    45    23    74 1   
    46    24    25 1   
    47    24    75 1   
    48    24    76 1   
    49    25    26 1   
    50    25    28 1   
    51    25    29 1   
    52    26    27 1   
    53    26    77 1   
    54    26    78 1   
    55    27    54 1   
    56    27    79 1   
    57    27    80 1   
    58    28    81 1   
    59    28    82 1   
    60    28    83 1   
    61    29    84 1   
    62    29    85 1   
    63    29    86 1   
    64    30    31 ar  
    65    30    38 ar  
    66    30    87 1   
    67    31    32 ar  
    68    31    88 1   
    69    32    33 ar  
    70    32    89 1   
    71    33    39 ar  
    72    33    90 1   
    73    34    35 1   
    74    34    36 2   
    75    34    39 1   
    76    35    91 1   
    77    35    92 1   
    78    35    93 1   
    79    36    37 1   
    80    36   115 1   
    81    37    38 1   
    82    38    39 ar  
    83    40    41 ar  
    84    40    45 ar  
    85    40    49 1   
    86    41    42 ar  
    87    41    95 1   
    88    42    43 ar  
    89    42    96 1   
    90    43    44 ar  
    91    43    97 1   
    92    44    45 ar  
    93    44    98 1   
    94    45    46 1   
    95    46    47 1   
    96    46   115 2   
    97    47    48 2   
    98    47    99 1   
    99    48    49 1   
   100    48   100 1   
   101    49    50 1   
   102    50    51 1   
   103    50   101 1   
   104    50   102 1   
   105    51    52 1   
   106    51   103 1   
   107    51   104 1   
   108    52    53 1   
   109    52   105 1   
   110    52   106 1   
   111    53    54 1   
   112    53    55 1   
   113    53    56 1   
   114    54   107 1   
   115    54   108 1   
   116    55   109 1   
   117    55   110 1   
   118    55   111 1   
   119    56   112 1   
   120    56   113 1   
   121    56   114 1   
   122    94   115 1   
@<TRIPOS>SUBSTRUCTURE
     1 TOT         1 TEMP              0 ****  ****    0 ROOT
