@<TRIPOS>MOLECULE
TOU
    8     7     1     0     0
SMALL
abcg2


@<TRIPOS>ATOM
      1 C            0.4040    -0.0310    -0.0380 cs         1 TOU       0.492400
      2 S           -1.2850    -0.0250    -0.0600 s          1 TOU      -0.685400
      3 N1           1.0960    -1.1710    -0.0340 nt         1 TOU      -0.557000
      4 N2           1.1040     1.1040    -0.0280 nt         1 TOU      -0.557000
      5 HN11         2.1030    -1.1950    -0.0260 hn         1 TOU       0.327000
      6 HN12         0.6090    -2.0490    -0.0430 hn         1 TOU       0.327000
      7 HN21         2.1100     1.1230     0.0050 hn         1 TOU       0.327000
      8 HN22         0.6210     1.9850    -0.0170 hn         1 TOU       0.327000
@<TRIPOS>BOND
     1     1     2 2   
     2     1     3 1   
     3     1     4 1   
     4     3     5 1   
     5     3     6 1   
     6     4     7 1   
     7     4     8 1   
@<TRIPOS>SUBSTRUCTURE
     1 TOU         1 TEMP              0 ****  ****    0 ROOT
