@<TRIPOS>MOLECULE
TOU
    8     7     1     0     0
SMALL
No Charge or Current Charge


@<TRIPOS>ATOM
      1 C            0.3910    -0.0310    -0.0370 cs         1 TOU       0.492400
      2 S           -1.2640    -0.0260    -0.0600 s          1 TOU      -0.685400
      3 N1           1.0930    -1.1630    -0.0340 nt         1 TOU      -0.557000
      4 N2           1.1000     1.0970    -0.0190 nt         1 TOU      -0.557000
      5 HN11         2.1020    -1.1460    -0.0200 hn         1 TOU       0.327000
      6 HN12         0.6090    -2.0490    -0.0480 hn         1 TOU       0.327000
      7 HN21         2.1090     1.0730    -0.0040 hn         1 TOU       0.327000
      8 HN22         0.6220     1.9860    -0.0190 hn         1 TOU       0.327000
@<TRIPOS>BOND
     1     1     2 2   
     2     1     3 1   
     3     1     4 1   
     4     3     5 1   
     5     3     6 1   
     6     4     7 1   
     7     4     8 1   
@<TRIPOS>SUBSTRUCTURE
     1 TOU         1 TEMP              0 ****  ****    0 ROOT
