@<TRIPOS>MOLECULE
TOV
   54    57     1     0     0
SMALL
No Charge or Current Charge


@<TRIPOS>ATOM
      1 O01         32.4820     9.9230   -27.2070 o          1 TOV      -0.554100
      2 C02         32.2310     9.6990   -28.3850 c          1 TOV       0.624700
      3 C07         28.6680    11.2800   -30.3590 ca         1 TOV      -0.101000
      4 C10         30.8070    10.1250   -30.4830 ca         1 TOV      -0.164000
      5 C12         34.3100     8.2830   -28.9510 ca         1 TOV      -0.034000
      6 C13         35.0740     8.4640   -27.7780 ca         1 TOV      -0.116000
      7 C14         36.3060     7.8050   -27.6260 ca         1 TOV      -0.094000
      8 C15         36.7820     6.9550   -28.6360 ca         1 TOV      -0.118000
      9 C16         36.0200     6.7410   -29.8020 ca         1 TOV      -0.086500
     10 C17         36.5340     5.8920   -30.8800 cc         1 TOV       0.327500
     11 C18         37.0180     4.6060   -30.6910 cd         1 TOV      -0.143000
     12 C19         36.9750     3.6940   -29.5240 ca         1 TOV       0.049000
     13 C20         36.1230     3.8890   -28.4190 ca         1 TOV      -0.174000
     14 C23         37.7280     1.6740   -28.3970 ca         1 TOV       0.482900
     15 C25         39.2360    -0.2150   -29.1270 c          1 TOV       0.617100
     16 C26         39.9190    -1.4370   -28.5260 c3         1 TOV      -0.182100
     17 O27         39.3550     0.0730   -30.3090 o          1 TOV      -0.579100
     18 C28         37.7830     2.5410   -29.5040 ca         1 TOV      -0.185000
     19 C03         30.9870    10.2490   -29.0740 ca         1 TOV      -0.159600
     20 C04         29.9690    10.9060   -28.3330 ca         1 TOV       0.185000
     21 C06         28.8250    11.4130   -28.9710 ca         1 TOV      -0.124000
     22 C08         29.6580    10.6370   -31.1120 ca         1 TOV       0.122100
     23 C21         36.1370     2.9730   -27.3570 ca         1 TOV       0.372900
     24 C30         37.1890     5.3070   -32.7860 cd         1 TOV       0.517800
     25 C32         37.0020     6.8730   -35.1350 c3         1 TOV       0.044900
     26 C34         34.8020     7.4320   -29.9600 ca         1 TOV      -0.131000
     27 F05         30.0530    11.0560   -26.9920 f          1 TOV      -0.159000
     28 N11         33.0640     8.9290   -29.1910 ns         1 TOV      -0.148000
     29 N22         36.9300     1.8800   -27.3360 nb         1 TOV      -0.733000
     30 N24         38.4810     0.5060   -28.2330 ns         1 TOV      -0.328900
     31 N29         37.4600     4.2450   -31.9610 na         1 TOV      -0.273500
     32 N33         36.6260     6.3230   -32.1740 nc         1 TOV      -0.685000
     33 O09         29.5010    10.5150   -32.4610 oh         1 TOV      -0.529100
     34 S31         37.5680     5.2280   -34.5050 ss         1 TOV      -0.348300
     35 H1          27.7810    11.6740   -30.8490 ha         1 TOV       0.137000
     36 H2          31.5580     9.6430   -31.1030 ha         1 TOV       0.123000
     37 H3          34.7450     9.1230   -26.9800 ha         1 TOV       0.139000
     38 H4          36.8970     7.9610   -26.7260 ha         1 TOV       0.117000
     39 H5          37.7440     6.4620   -28.5140 ha         1 TOV       0.121000
     40 H6          35.4220     4.7130   -28.3740 ha         1 TOV       0.142000
     41 H7          40.5090    -1.9950   -29.2620 hc         1 TOV       0.067700
     42 H8          40.5300    -1.1200   -27.6730 hc         1 TOV       0.067700
     43 H9          39.1630    -2.0700   -28.0480 hc         1 TOV       0.067700
     44 H10         38.4650     2.3420   -30.3200 ha         1 TOV       0.154000
     45 H11         28.0570    11.9090   -28.3830 ha         1 TOV       0.140000
     46 H12         35.4810     3.1130   -26.4980 h4         1 TOV       0.024100
     47 H13         37.1900     6.9430   -36.2130 h1         1 TOV       0.073033
     48 H14         35.9270     6.9930   -34.9500 h1         1 TOV       0.073033
     49 H15         37.5460     7.6760   -34.6220 h1         1 TOV       0.073033
     50 H16         34.2300     7.2940   -30.8750 ha         1 TOV       0.123000
     51 H17         32.7180     8.7990   -30.1320 hn         1 TOV       0.156000
     52 H18         38.4460     0.1310   -27.2960 hn         1 TOV       0.168000
     53 H19         37.8570     3.3640   -32.2570 hn         1 TOV       0.370000
     54 H21         30.2800    10.0460   -32.8300 ho         1 TOV       0.470000
@<TRIPOS>BOND
     1     1     2 2   
     2     2    19 1   
     3     2    28 1   
     4     3    21 ar  
     5     3    22 ar  
     6     3    35 1   
     7     4    19 ar  
     8     4    22 ar  
     9     4    36 1   
    10     5     6 ar  
    11     5    26 ar  
    12     5    28 1   
    13     6     7 ar  
    14     6    37 1   
    15     7     8 ar  
    16     7    38 1   
    17     8     9 ar  
    18     8    39 1   
    19     9    10 1   
    20     9    26 ar  
    21    10    11 2   
    22    10    32 1   
    23    11    12 1   
    24    11    31 1   
    25    12    13 ar  
    26    12    18 ar  
    27    13    23 ar  
    28    13    40 1   
    29    14    18 ar  
    30    14    29 ar  
    31    14    30 1   
    32    15    16 1   
    33    15    17 2   
    34    15    30 1   
    35    16    41 1   
    36    16    42 1   
    37    16    43 1   
    38    18    44 1   
    39    19    20 ar  
    40    20    21 ar  
    41    20    27 1   
    42    21    45 1   
    43    22    33 1   
    44    23    29 ar  
    45    23    46 1   
    46    24    31 1   
    47    24    32 2   
    48    24    34 1   
    49    25    34 1   
    50    25    47 1   
    51    25    48 1   
    52    25    49 1   
    53    26    50 1   
    54    28    51 1   
    55    30    52 1   
    56    31    53 1   
    57    33    54 1   
@<TRIPOS>SUBSTRUCTURE
     1 TOV         1 TEMP              0 ****  ****    0 ROOT
