@<TRIPOS>MOLECULE
TOV
   54    57     1     0     0
SMALL
bcc


@<TRIPOS>ATOM
      1 O01         32.2140     9.4160   -27.3480 o          1 TOV      -0.554100
      2 C02         32.1740     9.5390   -28.5560 c          1 TOV       0.691700
      3 C07         29.2250    12.0370   -30.3990 ca         1 TOV      -0.119000
      4 C10         31.5060    11.3140   -30.1950 ca         1 TOV      -0.182000
      5 C12         34.1480     8.1510   -29.0970 ca         1 TOV       0.058600
      6 C13         34.8570     8.2660   -27.9020 ca         1 TOV      -0.134000
      7 C14         35.9510     7.4430   -27.6820 ca         1 TOV      -0.112000
      8 C15         36.3530     6.5110   -28.6240 ca         1 TOV      -0.136000
      9 C16         35.6460     6.3870   -29.8200 ca         1 TOV      -0.086500
     10 C17         36.0440     5.4200   -30.8460 cc         1 TOV       0.392800
     11 C18         36.5260     4.1400   -30.6950 cd         1 TOV      -0.157600
     12 C19         36.7090     3.2810   -29.5320 ca         1 TOV       0.049000
     13 C20         35.7890     3.2980   -28.4830 ca         1 TOV      -0.257300
     14 C23         37.9040     1.5870   -28.3360 ca         1 TOV       0.548200
     15 C25         40.0440     0.4350   -28.8950 c          1 TOV       0.684100
     16 C26         40.9610    -0.6030   -28.3030 c3         1 TOV      -0.182100
     17 O27         40.2880     1.0180   -29.9330 o          1 TOV      -0.579100
     18 C28         37.7880     2.4060   -29.4600 ca         1 TOV      -0.268300
     19 C03         31.1360    10.3790   -29.2300 ca         1 TOV      -0.159600
     20 C04         29.8020    10.2940   -28.8690 ca         1 TOV       0.149900
     21 C06         28.8470    11.1060   -29.4480 ca         1 TOV      -0.142000
     22 C08         30.5610    12.1490   -30.7800 ca         1 TOV       0.122100
     23 C21         36.0020     2.4440   -27.4190 ca         1 TOV       0.438200
     24 C30         36.4560     4.7080   -32.8170 cd         1 TOV       0.517800
     25 C32         36.0440     6.1560   -35.0810 c3         1 TOV      -0.003000
     26 C34         34.5530     7.2160   -30.0470 ca         1 TOV      -0.149000
     27 F05         29.4100     9.3850   -27.9640 f          1 TOV      -0.123900
     28 N11         33.0510     8.9630   -29.4170 ns         1 TOV      -0.474100
     29 N22         37.0270     1.6060   -27.3390 nb         1 TOV      -0.733000
     30 N24         38.9310     0.6720   -28.1390 ns         1 TOV      -0.562400
     31 N29         36.7990     3.7150   -31.9730 na         1 TOV      -0.273900
     32 N33         36.0020     5.7510   -32.1730 nc         1 TOV      -0.685000
     33 O09         30.8720    13.0760   -31.7050 oh         1 TOV      -0.490100
     34 S31         36.6250     4.5350   -34.5440 ss         1 TOV      -0.300400
     35 H1          28.4800    12.6810   -30.8510 ha         1 TOV       0.155000
     36 H2          32.5510    11.4070   -30.4750 ha         1 TOV       0.141000
     37 H3          34.5830     8.9960   -27.1560 ha         1 TOV       0.157000
     38 H4          36.5100     7.5450   -26.7600 ha         1 TOV       0.135000
     39 H5          37.2240     5.8970   -28.4390 ha         1 TOV       0.139000
     40 H6          34.9210     3.9410   -28.4990 ha         1 TOV       0.160000
     41 H7          41.6540    -0.9640   -29.0590 hc         1 TOV       0.067700
     42 H8          41.5410    -0.1600   -27.4910 hc         1 TOV       0.067700
     43 H9          40.4110    -1.4480   -27.8890 hc         1 TOV       0.067700
     44 H10         38.5280     2.3730   -30.2430 ha         1 TOV       0.172000
     45 H11         27.8080    11.0100   -29.1590 ha         1 TOV       0.158000
     46 H12         35.3050     2.4250   -26.5900 h4         1 TOV       0.024100
     47 H13         36.1120     6.1510   -36.1660 h1         1 TOV       0.073033
     48 H14         35.0110     6.3190   -34.7850 h1         1 TOV       0.073033
     49 H15         36.6750     6.9480   -34.6850 h1         1 TOV       0.073033
     50 H16         33.9990     7.1270   -30.9750 ha         1 TOV       0.141000
     51 H17         32.8160     9.0090   -30.3980 hn         1 TOV       0.322500
     52 H18         38.8340     0.1440   -27.2830 hn         1 TOV       0.334500
     53 H19         37.1290     2.7970   -32.2340 hn         1 TOV       0.319700
     54 H21         31.8160    13.0650   -31.9040 ho         1 TOV       0.431000
@<TRIPOS>BOND
     1     1     2 2   
     2     2    19 1   
     3     2    28 1   
     4     3    21 ar  
     5     3    22 ar  
     6     3    35 1   
     7     4    19 ar  
     8     4    22 ar  
     9     4    36 1   
    10     5     6 ar  
    11     5    26 ar  
    12     5    28 1   
    13     6     7 ar  
    14     6    37 1   
    15     7     8 ar  
    16     7    38 1   
    17     8     9 ar  
    18     8    39 1   
    19     9    10 1   
    20     9    26 ar  
    21    10    11 2   
    22    10    32 1   
    23    11    12 1   
    24    11    31 1   
    25    12    13 ar  
    26    12    18 ar  
    27    13    23 ar  
    28    13    40 1   
    29    14    18 ar  
    30    14    29 ar  
    31    14    30 1   
    32    15    16 1   
    33    15    17 2   
    34    15    30 1   
    35    16    41 1   
    36    16    42 1   
    37    16    43 1   
    38    18    44 1   
    39    19    20 ar  
    40    20    21 ar  
    41    20    27 1   
    42    21    45 1   
    43    22    33 1   
    44    23    29 ar  
    45    23    46 1   
    46    24    31 1   
    47    24    32 2   
    48    24    34 1   
    49    25    34 1   
    50    25    47 1   
    51    25    48 1   
    52    25    49 1   
    53    26    50 1   
    54    28    51 1   
    55    30    52 1   
    56    31    53 1   
    57    33    54 1   
@<TRIPOS>SUBSTRUCTURE
     1 TOV         1 TEMP              0 ****  ****    0 ROOT
