@<TRIPOS>MOLECULE
TOW
   32    33     1     0     0
SMALL
No Charge or Current Charge


@<TRIPOS>ATOM
      1 C1          37.8660    41.0020    11.8070 c3         1 TOW       0.209100
      2 C2          36.5630    41.1560    13.9040 cc         1 TOW       0.787800
      3 C3          35.0640    42.4240    15.1920 c          1 TOW       0.721400
      4 C7          38.3360    42.1900    17.0510 ca         1 TOW      -0.178000
      5 C8          39.5530    41.5060    16.9440 ca         1 TOW       0.180000
      6 C9          39.8110    40.7030    15.8290 ca         1 TOW      -0.158000
      7 C10         38.8480    40.5810    14.8180 ca         1 TOW      -0.030000
      8 C11         37.6290    41.2990    14.8990 ca         1 TOW      -0.277900
      9 Cl          40.7420    41.6270    18.2340 cl         1 TOW      -0.187000
     10 N           36.8350    40.4880    12.7340 nh         1 TOW      -0.736600
     11 C           35.8300    39.5810    12.1410 c3         1 TOW       0.209100
     12 C6          37.3800    42.1190    16.0130 ca         1 TOW       0.139600
     13 N2          36.0730    42.6990    16.1340 n          1 TOW      -0.318000
     14 O           33.9280    42.8570    15.2970 o          1 TOW      -0.531000
     15 N1          35.3660    41.6460    14.0820 nd         1 TOW      -0.763100
     16 C4          35.7890    43.7090    17.1910 c3         1 TOW       0.090000
     17 C5          35.2920    43.0850    18.5140 c3         1 TOW       0.140600
     18 O1          35.0990    44.1070    19.5020 oh         1 TOW      -0.660000
     19 H1          38.4220    41.8370    12.2540 h1         1 TOW       0.048367
     20 H2          38.5810    40.2080    11.5510 h1         1 TOW       0.048367
     21 H3          37.4030    41.3620    10.8780 h1         1 TOW       0.048367
     22 H4          38.1560    42.7700    17.9490 ha         1 TOW       0.145000
     23 H5          40.7470    40.1550    15.7610 ha         1 TOW       0.137000
     24 H6          39.0540    39.9080    13.9880 ha         1 TOW       0.124000
     25 H7          35.3160    39.0090    12.9250 h1         1 TOW       0.048367
     26 H8          35.0800    40.1530    11.5780 h1         1 TOW       0.048367
     27 H9          36.3080    38.8680    11.4570 h1         1 TOW       0.048367
     28 H10         36.6930    44.3000    17.3810 h1         1 TOW       0.077200
     29 H11         35.0350    44.4210    16.8320 h1         1 TOW       0.077200
     30 H12         34.3500    42.5530    18.3250 h1         1 TOW       0.031700
     31 H13         36.0250    42.3480    18.8680 h1         1 TOW       0.031700
     32 H14         34.7700    43.6640    20.3170 ho         1 TOW       0.449000
@<TRIPOS>BOND
     1     1    10 1   
     2     1    19 1   
     3     1    20 1   
     4     1    21 1   
     5     2     8 1   
     6     2    10 1   
     7     2    15 2   
     8     3    13 1   
     9     3    14 2   
    10     3    15 1   
    11     4     5 ar  
    12     4    12 ar  
    13     4    22 1   
    14     5     6 ar  
    15     5     9 1   
    16     6     7 ar  
    17     6    23 1   
    18     7     8 ar  
    19     7    24 1   
    20     8    12 ar  
    21    10    11 1   
    22    11    25 1   
    23    11    26 1   
    24    11    27 1   
    25    12    13 1   
    26    13    16 1   
    27    16    17 1   
    28    16    28 1   
    29    16    29 1   
    30    17    18 1   
    31    17    30 1   
    32    17    31 1   
    33    18    32 1   
@<TRIPOS>SUBSTRUCTURE
     1 TOW         1 TEMP              0 ****  ****    0 ROOT
