@<TRIPOS>MOLECULE
TOW
   32    33     1     0     0
SMALL
abcg2


@<TRIPOS>ATOM
      1 C1          38.0360    40.5530    12.0440 c3         1 TOW       0.209100
      2 C2          36.5530    41.0720    13.9550 cc         1 TOW       0.787800
      3 C3          35.0210    42.1630    15.3280 c          1 TOW       0.721400
      4 C7          38.3360    42.4440    16.9210 ca         1 TOW      -0.178000
      5 C8          39.5560    41.8120    16.8270 ca         1 TOW       0.180000
      6 C9          39.8210    40.8560    15.8520 ca         1 TOW      -0.158000
      7 C10         38.8450    40.5980    14.9160 ca         1 TOW      -0.030000
      8 C11         37.6200    41.2710    14.9270 ca         1 TOW      -0.277900
      9 CL          40.7800    42.1940    17.9840 cl         1 TOW      -0.187000
     10 N           36.7750    40.4900    12.7640 nh         1 TOW      -0.736600
     11 C           35.6380    40.1110    11.9460 c3         1 TOW       0.209100
     12 C6          37.3320    42.1460    15.9900 ca         1 TOW       0.139600
     13 N2          36.0650    42.6630    16.1090 n          1 TOW      -0.318000
     14 O           33.8670    42.4470    15.6120 o          1 TOW      -0.531000
     15 N1          35.3270    41.4300    14.2330 nd         1 TOW      -0.763100
     16 C4          35.7310    43.6090    17.1630 c3         1 TOW       0.090000
     17 C5          35.3850    42.9200    18.4750 c3         1 TOW       0.140600
     18 O1          35.1190    43.9360    19.4120 oh         1 TOW      -0.660000
     19 H1          38.7130    41.2780    12.4840 h1         1 TOW       0.048367
     20 H2          38.5320    39.5820    11.9980 h1         1 TOW       0.048367
     21 H3          37.8350    40.8760    11.0230 h1         1 TOW       0.048367
     22 H4          38.1660    43.1400    17.7290 ha         1 TOW       0.145000
     23 H5          40.7620    40.3260    15.8300 ha         1 TOW       0.137000
     24 H6          39.0430    39.8380    14.1750 ha         1 TOW       0.124000
     25 H7          34.8400    39.7030    12.5570 h1         1 TOW       0.048367
     26 H8          35.2430    40.9590    11.3800 h1         1 TOW       0.048367
     27 H9          35.9630    39.3480    11.2410 h1         1 TOW       0.048367
     28 H10         36.5630    44.3000    17.2990 h1         1 TOW       0.077200
     29 H11         34.8860    44.2020    16.8240 h1         1 TOW       0.077200
     30 H12         34.5190    42.2670    18.3170 h1         1 TOW       0.031700
     31 H13         36.2160    42.2790    18.7940 h1         1 TOW       0.031700
     32 H14         34.8590    43.5230    20.2400 ho         1 TOW       0.449000
@<TRIPOS>BOND
     1     1    10 1   
     2     1    19 1   
     3     1    20 1   
     4     1    21 1   
     5     2     8 1   
     6     2    10 1   
     7     2    15 2   
     8     3    13 1   
     9     3    14 2   
    10     3    15 1   
    11     4     5 ar  
    12     4    12 ar  
    13     4    22 1   
    14     5     6 ar  
    15     5     9 1   
    16     6     7 ar  
    17     6    23 1   
    18     7     8 ar  
    19     7    24 1   
    20     8    12 ar  
    21    10    11 1   
    22    11    25 1   
    23    11    26 1   
    24    11    27 1   
    25    12    13 1   
    26    13    16 1   
    27    16    17 1   
    28    16    28 1   
    29    16    29 1   
    30    17    18 1   
    31    17    30 1   
    32    17    31 1   
    33    18    32 1   
@<TRIPOS>SUBSTRUCTURE
     1 TOW         1 TEMP              0 ****  ****    0 ROOT
