@<TRIPOS>MOLECULE
TOZ
   21    22     1     0     0
SMALL
bcc


@<TRIPOS>ATOM
      1 N           -4.0260    -2.1410     0.8760 n8         1 TOZ      -0.863800
      2 CA1         -3.7160    -1.5750    -0.4290 c3         1 TOZ       0.117500
      3 C2          -2.7100    -0.4740    -0.2880 cc         1 TOZ       0.430700
      4 N2          -1.4300    -0.6440    -0.2480 nd         1 TOZ      -0.564000
      5 C3          -0.7760     0.5380    -0.0530 cd         1 TOZ       0.362300
      6 C4           0.6730     0.5410     0.0090 cd         1 TOZ       0.373400
      7 N3           1.4800    -0.4560    -0.1120 nc         1 TOZ      -0.587000
      8 CA2          2.7430     0.0880     0.0230 cc         1 TOZ       0.199500
      9 C            4.0230    -0.7000    -0.0480 c          1 TOZ       0.844100
     10 O            5.0630    -0.0280     0.0900 o          1 TOZ      -0.811300
     11 OXT          3.9200    -1.9230    -0.2310 o          1 TOZ      -0.811300
     12 C7           2.6110     1.4190     0.2250 cd         1 TOZ       0.139300
     13 O3           1.2900     1.7140     0.2160 os         1 TOZ      -0.386800
     14 C8          -1.5730     1.6380     0.0640 cc         1 TOZ      -0.191400
     15 S1          -3.2060     1.1710    -0.0830 ss         1 TOZ      -0.257300
     16 H1          -4.5970    -1.4910     1.4010 hn         1 TOZ       0.333800
     17 H2          -4.5980    -2.9660     0.7440 hn         1 TOZ       0.333800
     18 H4          -3.2640    -2.3520    -1.0470 h1         1 TOZ       0.046700
     19 H5          -4.5870    -1.1990    -0.9790 h1         1 TOZ       0.046700
     20 H7           3.2980     2.2320     0.3800 h4         1 TOZ       0.059100
     21 H8          -1.2880     2.6670     0.2150 h4         1 TOZ       0.185000
@<TRIPOS>BOND
     1     1     2 1   
     2     1    16 1   
     3     1    17 1   
     4     2     3 1   
     5     2    18 1   
     6     2    19 1   
     7     3     4 2   
     8     3    15 1   
     9     4     5 1   
    10     5     6 1   
    11     5    14 2   
    12     6     7 2   
    13     6    13 1   
    14     7     8 1   
    15     8     9 1   
    16     8    12 2   
    17     9    10 1   
    18     9    11 1   
    19    12    13 1   
    20    12    20 1   
    21    14    15 1   
    22    14    21 1   
@<TRIPOS>SUBSTRUCTURE
     1 TOZ         1 TEMP              0 ****  ****    0 ROOT
