@<TRIPOS>MOLECULE
TOZ
   21    22     1     0     0
SMALL
No Charge or Current Charge


@<TRIPOS>ATOM
      1 N           -4.4430    -2.1100     0.8600 n8         1 TOZ      -0.863800
      2 CA1         -3.7850    -1.6370    -0.3960 c3         1 TOZ       0.117500
      3 C2          -2.7220    -0.5610    -0.2040 cc         1 TOZ       0.430700
      4 N2          -1.4180    -0.8070    -0.2290 nd         1 TOZ      -0.564000
      5 C3          -0.7150     0.3800    -0.0250 cd         1 TOZ       0.362300
      6 C4           0.7390     0.5120     0.0170 cd         1 TOZ       0.373400
      7 N3           1.6010    -0.4940    -0.1360 nc         1 TOZ      -0.587000
      8 CA2          2.8420     0.1090    -0.0210 cc         1 TOZ       0.199500
      9 C            4.2190    -0.5150    -0.1050 c          1 TOZ       0.844100
     10 O            5.2130     0.1960     0.0240 o          1 TOZ      -0.811300
     11 OXT          4.3300    -1.7250    -0.3020 o          1 TOZ      -0.811300
     12 C7           2.6550     1.4430     0.1940 cd         1 TOZ       0.139300
     13 O3           1.3250     1.7400     0.2260 os         1 TOZ      -0.386800
     14 C8          -1.4950     1.5050     0.1480 cc         1 TOZ      -0.191400
     15 S1          -3.1890     1.1060     0.0580 ss         1 TOZ      -0.257300
     16 H1          -4.9440    -1.3280     1.2960 hn         1 TOZ       0.333800
     17 H2          -5.1770    -2.7860     0.6250 hn         1 TOZ       0.333800
     18 H4          -3.3260    -2.5030    -0.8920 h1         1 TOZ       0.046700
     19 H5          -4.5610    -1.2440    -1.0670 h1         1 TOZ       0.046700
     20 H7           3.3610     2.2510     0.3360 h4         1 TOZ       0.059100
     21 H8          -1.1790     2.5260     0.3190 h4         1 TOZ       0.185000
@<TRIPOS>BOND
     1     1     2 1   
     2     1    16 1   
     3     1    17 1   
     4     2     3 1   
     5     2    18 1   
     6     2    19 1   
     7     3     4 2   
     8     3    15 1   
     9     4     5 1   
    10     5     6 1   
    11     5    14 2   
    12     6     7 2   
    13     6    13 1   
    14     7     8 1   
    15     8     9 1   
    16     8    12 2   
    17     9    10 1   
    18     9    11 1   
    19    12    13 1   
    20    12    20 1   
    21    14    15 1   
    22    14    21 1   
@<TRIPOS>SUBSTRUCTURE
     1 TOZ         1 TEMP              0 ****  ****    0 ROOT
