@<TRIPOS>MOLECULE
TP0
   44    46     1     0     0
SMALL
No Charge or Current Charge


@<TRIPOS>ATOM
      1 N1           4.4170    -1.6980     0.0840 n3         1 TP0      -0.715600
      2 C3          -0.4250    -0.2240    -0.4240 ce         1 TP0      -0.012400
      3 C4          -2.5480    -0.5100     0.8460 ca         1 TP0      -0.058800
      4 C5          -0.8220     2.1420     0.5200 ca         1 TP0      -0.058800
      5 C6          -1.8190    -0.7190    -0.3350 ca         1 TP0      -0.041800
      6 C7          -0.2430     1.2610    -0.4430 ca         1 TP0      -0.041800
      7 C8           0.6030    -1.1050    -0.4610 c2         1 TP0      -0.197200
      8 C10         -3.8700    -0.9860     0.9460 ca         1 TP0      -0.115000
      9 C11         -0.5950     3.5290     0.3940 ca         1 TP0      -0.115000
     10 C12         -2.4030    -1.4160    -1.4100 ca         1 TP0      -0.099000
     11 C13          0.5170     1.8070    -1.5010 ca         1 TP0      -0.099000
     12 C14          2.9470    -1.8780     0.2050 c3         1 TP0       0.168800
     13 C15         -4.4570    -1.6730    -0.1310 ca         1 TP0      -0.106000
     14 C16          0.1770     4.0510    -0.6540 ca         1 TP0      -0.106000
     15 C17         -3.7220    -1.8900    -1.3090 ca         1 TP0      -0.114500
     16 C18          0.7310     3.1880    -1.6060 ca         1 TP0      -0.114500
     17 C19          4.9220    -0.4460     0.6990 c3         1 TP0       0.150100
     18 C20          5.1620    -2.8840     0.5620 c3         1 TP0       0.150100
     19 C21         -1.8840     0.2180     2.0020 c3         1 TP0      -0.026100
     20 C22         -1.6990     1.7200     1.7140 c3         1 TP0      -0.026100
     21 C29          2.0910    -0.7920    -0.4910 c3         1 TP0      -0.047200
     22 H8           0.3780    -2.1730    -0.4420 ha         1 TP0       0.172000
     23 H10         -4.4430    -0.8270     1.8570 ha         1 TP0       0.109000
     24 H11         -1.0260     4.2150     1.1200 ha         1 TP0       0.109000
     25 H12         -1.8340    -1.5840    -2.3210 ha         1 TP0       0.114500
     26 H13          0.9390     1.1500    -2.2580 ha         1 TP0       0.114500
     27 H14          2.6710    -2.8460    -0.2370 h1         1 TP0       0.031200
     28 H14A         2.6610    -1.9200     1.2650 h1         1 TP0       0.031200
     29 H15         -5.4780    -2.0400    -0.0510 ha         1 TP0       0.112000
     30 H16          0.3390     5.1240    -0.7320 ha         1 TP0       0.112000
     31 H17         -4.1740    -2.4240    -2.1420 ha         1 TP0       0.112500
     32 H18          1.3220     3.5880    -2.4270 ha         1 TP0       0.112500
     33 H19          4.6830    -0.4120     1.7710 h1         1 TP0       0.030033
     34 H19A         6.0120    -0.3740     0.5900 h1         1 TP0       0.030033
     35 H19B         4.4860     0.4390     0.2180 h1         1 TP0       0.030033
     36 H20          4.8350    -3.7890     0.0330 h1         1 TP0       0.030033
     37 H20A         6.2400    -2.7630     0.3870 h1         1 TP0       0.030033
     38 H20B         5.0030    -3.0380     1.6380 h1         1 TP0       0.030033
     39 H21         -2.4840     0.1090     2.9130 hc         1 TP0       0.049450
     40 H21A        -0.9100    -0.2310     2.2320 hc         1 TP0       0.049450
     41 H22         -1.2930     2.1780     2.6240 hc         1 TP0       0.049450
     42 H22A        -2.6960     2.1590     1.5860 hc         1 TP0       0.049450
     43 H29          2.4270    -0.6930    -1.5300 hc         1 TP0       0.058700
     44 H29A         2.2750     0.1710    -0.0030 hc         1 TP0       0.058700
@<TRIPOS>BOND
     1     1    12 1   
     2     1    17 1   
     3     1    18 1   
     4     2     5 1   
     5     2     6 1   
     6     2     7 2   
     7     3     5 ar  
     8     3     8 ar  
     9     3    19 1   
    10     4     6 ar  
    11     4     9 ar  
    12     4    20 1   
    13     5    10 ar  
    14     6    11 ar  
    15     7    21 1   
    16     7    22 1   
    17     8    13 ar  
    18     8    23 1   
    19     9    14 ar  
    20     9    24 1   
    21    10    15 ar  
    22    10    25 1   
    23    11    16 ar  
    24    11    26 1   
    25    12    21 1   
    26    12    27 1   
    27    12    28 1   
    28    13    15 ar  
    29    13    29 1   
    30    14    16 ar  
    31    14    30 1   
    32    15    31 1   
    33    16    32 1   
    34    17    33 1   
    35    17    34 1   
    36    17    35 1   
    37    18    36 1   
    38    18    37 1   
    39    18    38 1   
    40    19    20 1   
    41    19    39 1   
    42    19    40 1   
    43    20    41 1   
    44    20    42 1   
    45    21    43 1   
    46    21    44 1   
@<TRIPOS>SUBSTRUCTURE
     1 TP0         1 TEMP              0 ****  ****    0 ROOT
