@<TRIPOS>MOLECULE
TP0
   44    46     1     0     0
SMALL
abcg2


@<TRIPOS>ATOM
      1 N1           4.2850    -1.6710     0.1120 n3         1 TP0      -0.715600
      2 C3          -0.3790    -0.2420    -0.4720 ce         1 TP0      -0.012400
      3 C4          -2.4570    -0.5650     0.8390 ca         1 TP0      -0.058800
      4 C5          -0.7350     2.0600     0.5620 ca         1 TP0      -0.058800
      5 C6          -1.7740    -0.7330    -0.3690 ca         1 TP0      -0.041800
      6 C7          -0.1880     1.2300    -0.4280 ca         1 TP0      -0.041800
      7 C8           0.6180    -1.1170    -0.6470 c2         1 TP0      -0.197200
      8 C10         -3.7620    -1.0300     0.9500 ca         1 TP0      -0.115000
      9 C11         -0.5050     3.4360     0.4750 ca         1 TP0      -0.115000
     10 C12         -2.4020    -1.3650    -1.4380 ca         1 TP0      -0.099000
     11 C13          0.5340     1.8150    -1.4760 ca         1 TP0      -0.099000
     12 C14          2.8440    -1.7700     0.2430 c3         1 TP0       0.168800
     13 C15         -4.3890    -1.6570    -0.1200 ca         1 TP0      -0.106000
     14 C16          0.2260     4.0000    -0.5560 ca         1 TP0      -0.106000
     15 C17         -3.7070    -1.8270    -1.3160 ca         1 TP0      -0.114500
     16 C18          0.7480     3.1790    -1.5470 ca         1 TP0      -0.114500
     17 C19          4.7990    -0.3970     0.5700 c3         1 TP0       0.150100
     18 C20          4.9450    -2.7600     0.8000 c3         1 TP0       0.150100
     19 C21         -1.7540     0.1130     1.9760 c3         1 TP0      -0.026100
     20 C22         -1.5670     1.6090     1.7420 c3         1 TP0      -0.026100
     21 C29          2.0860    -0.8420    -0.7050 c3         1 TP0      -0.047200
     22 H8           0.3420    -2.1670    -0.7160 ha         1 TP0       0.172000
     23 H10         -4.2910    -0.9100     1.8890 ha         1 TP0       0.109000
     24 H11         -0.9160     4.0790     1.2450 ha         1 TP0       0.109000
     25 H12         -1.8680    -1.4880    -2.3720 ha         1 TP0       0.114500
     26 H13          0.9240     1.1770    -2.2600 ha         1 TP0       0.114500
     27 H14          2.5590    -2.8010     0.0140 h1         1 TP0       0.031200
     28 H14A         2.5110    -1.5800     1.2790 h1         1 TP0       0.031200
     29 H15         -5.4050    -2.0150    -0.0150 ha         1 TP0       0.112000
     30 H16          0.3820     5.0700    -0.5880 ha         1 TP0       0.112000
     31 H17         -4.1870    -2.3160    -2.1530 ha         1 TP0       0.112500
     32 H18          1.3080     3.5990    -2.3730 ha         1 TP0       0.112500
     33 H19          4.5820    -0.2020     1.6320 h1         1 TP0       0.030033
     34 H19A         5.8830    -0.3700     0.4430 h1         1 TP0       0.030033
     35 H19B         4.3860     0.4270    -0.0120 h1         1 TP0       0.030033
     36 H20          4.5960    -3.7180     0.4130 h1         1 TP0       0.030033
     37 H20A         6.0230    -2.7060     0.6350 h1         1 TP0       0.030033
     38 H20B         4.7770    -2.7560     1.8890 h1         1 TP0       0.030033
     39 H21         -2.3300    -0.0110     2.8950 hc         1 TP0       0.049450
     40 H21A        -0.7830    -0.3600     2.1530 hc         1 TP0       0.049450
     41 H22         -1.1310     2.0430     2.6460 hc         1 TP0       0.049450
     42 H22A        -2.5570     2.0660     1.6490 hc         1 TP0       0.049450
     43 H29          2.4550    -1.0160    -1.7220 hc         1 TP0       0.058700
     44 H29A         2.2870     0.2030    -0.4690 hc         1 TP0       0.058700
@<TRIPOS>BOND
     1     1    12 1   
     2     1    17 1   
     3     1    18 1   
     4     2     5 1   
     5     2     6 1   
     6     2     7 2   
     7     3     5 ar  
     8     3     8 ar  
     9     3    19 1   
    10     4     6 ar  
    11     4     9 ar  
    12     4    20 1   
    13     5    10 ar  
    14     6    11 ar  
    15     7    21 1   
    16     7    22 1   
    17     8    13 ar  
    18     8    23 1   
    19     9    14 ar  
    20     9    24 1   
    21    10    15 ar  
    22    10    25 1   
    23    11    16 ar  
    24    11    26 1   
    25    12    21 1   
    26    12    27 1   
    27    12    28 1   
    28    13    15 ar  
    29    13    29 1   
    30    14    16 ar  
    31    14    30 1   
    32    15    31 1   
    33    16    32 1   
    34    17    33 1   
    35    17    34 1   
    36    17    35 1   
    37    18    36 1   
    38    18    37 1   
    39    18    38 1   
    40    19    20 1   
    41    19    39 1   
    42    19    40 1   
    43    20    41 1   
    44    20    42 1   
    45    21    43 1   
    46    21    44 1   
@<TRIPOS>SUBSTRUCTURE
     1 TP0         1 TEMP              0 ****  ****    0 ROOT
