@<TRIPOS>MOLECULE
TP2
   41    42     1     0     0
SMALL
No Charge or Current Charge


@<TRIPOS>ATOM
      1 S1          -0.4750     1.5890     6.8410 sh         1 TP2      -0.442800
      2 C2          -0.5900     0.4480     5.3830 c3         1 TP2       0.050600
      3 C3           0.3240     0.8530     4.2090 c3         1 TP2       0.115000
      4 N4           0.2540    -0.0890     3.0860 ns         1 TP2      -0.501900
      5 C5          -0.8150    -0.1880     2.2130 c          1 TP2       0.609100
      6 C6          -0.5320    -1.3240     1.1550 c5         1 TP2       0.137500
      7 N7          -0.3360    -0.8590    -0.2500 n3         1 TP2      -0.734500
      8 S8           1.0050     0.1210    -0.6150 sy         1 TP2       1.175600
      9 C9           1.0520     0.0550    -2.4170 ca         1 TP2      -0.314500
     10 C10          0.1660     0.8510    -3.1710 ca         1 TP2      -0.014500
     11 C11          0.1900     0.7920    -4.5750 ca         1 TP2      -0.134500
     12 C12          1.0920    -0.0610    -5.2380 ca         1 TP2      -0.020300
     13 C13          1.9750    -0.8540    -4.4820 ca         1 TP2      -0.134500
     14 C14          1.9570    -0.8010    -3.0770 ca         1 TP2      -0.014500
     15 C15          1.1160    -0.1200    -6.7570 c3         1 TP2      -0.057800
     16 O16          2.1850    -0.5590    -0.0710 o          1 TP2      -0.529500
     17 O17          0.6290     1.4820    -0.2190 o          1 TP2      -0.529500
     18 C18         -0.6530    -2.0340    -1.0790 c5         1 TP2       0.218800
     19 C19         -2.0160    -2.4220    -0.4690 c5         1 TP2      -0.097400
     20 C20         -1.7470    -2.3080     1.0590 c5         1 TP2      -0.077400
     21 O21         -1.8150     0.5140     2.3090 o          1 TP2      -0.563100
     22 HS1         -1.3740     0.9330     7.6170 hs         1 TP2       0.211800
     23 HC21        -1.6340     0.4270     5.0440 h1         1 TP2       0.063200
     24 HC22        -0.3220    -0.5640     5.7160 h1         1 TP2       0.063200
     25 HC31         1.3630     0.9020     4.5620 h1         1 TP2       0.074200
     26 HC32         0.0420     1.8540     3.8560 h1         1 TP2       0.074200
     27 HN41         1.0440    -0.7030     2.9200 hn         1 TP2       0.308500
     28 HC61         0.3510    -1.8900     1.4840 h1         1 TP2       0.045700
     29 H101        -0.5440     1.5100    -2.6740 ha         1 TP2       0.133500
     30 H111        -0.4970     1.4100    -5.1480 ha         1 TP2       0.117000
     31 H131         2.6780    -1.5150    -4.9830 ha         1 TP2       0.117000
     32 H141         2.6460    -1.4260    -2.5110 ha         1 TP2       0.133500
     33 H151         1.8170     0.6170    -7.1650 hc         1 TP2       0.049700
     34 H152         1.4250    -1.1100    -7.1140 hc         1 TP2       0.049700
     35 H153         0.1260     0.0870    -7.1810 hc         1 TP2       0.049700
     36 H181        -0.7510    -1.7990    -2.1480 h1         1 TP2       0.063200
     37 H182         0.0960    -2.8310    -0.9660 h1         1 TP2       0.063200
     38 H191        -2.7960    -1.7200    -0.7860 hc         1 TP2       0.055700
     39 H192        -2.3380    -3.4260    -0.7690 hc         1 TP2       0.055700
     40 H201        -2.6360    -1.9500     1.5910 hc         1 TP2       0.064200
     41 H202        -1.4880    -3.2800     1.4950 hc         1 TP2       0.064200
@<TRIPOS>BOND
     1     1     2 1   
     2     1    22 1   
     3     2     3 1   
     4     2    23 1   
     5     2    24 1   
     6     3     4 1   
     7     3    25 1   
     8     3    26 1   
     9     4     5 1   
    10     4    27 1   
    11     5     6 1   
    12     5    21 2   
    13     6     7 1   
    14     6    20 1   
    15     6    28 1   
    16     7     8 1   
    17     7    18 1   
    18     8     9 1   
    19     8    16 2   
    20     8    17 2   
    21     9    10 ar  
    22     9    14 ar  
    23    10    11 ar  
    24    10    29 1   
    25    11    12 ar  
    26    11    30 1   
    27    12    13 ar  
    28    12    15 1   
    29    13    14 ar  
    30    13    31 1   
    31    14    32 1   
    32    15    33 1   
    33    15    34 1   
    34    15    35 1   
    35    18    19 1   
    36    18    36 1   
    37    18    37 1   
    38    19    20 1   
    39    19    38 1   
    40    19    39 1   
    41    20    40 1   
    42    20    41 1   
@<TRIPOS>SUBSTRUCTURE
     1 TP2         1 TEMP              0 ****  ****    0 ROOT
