@<TRIPOS>MOLECULE
TP2
   41    42     1     0     0
SMALL
abcg2


@<TRIPOS>ATOM
      1 S1           0.8750    -0.1330     6.5540 sh         1 TP2      -0.442800
      2 C2           0.3710    -0.7550     4.9160 c3         1 TP2       0.050600
      3 C3           0.9370     0.1760     3.8500 c3         1 TP2       0.115000
      4 N4           0.5820    -0.2580     2.5210 ns         1 TP2      -0.501900
      5 C5          -0.5750     0.0630     1.9240 c          1 TP2       0.609100
      6 C6          -0.8000    -0.6300     0.5860 c5         1 TP2       0.137500
      7 N7          -1.4800     0.2470    -0.3590 n3         1 TP2      -0.734500
      8 S8          -0.6160     1.4180    -1.1080 sy         1 TP2       1.175600
      9 C9           0.3050     0.6250    -2.3930 ca         1 TP2      -0.314500
     10 C10         -0.2480     0.4880    -3.6600 ca         1 TP2      -0.014500
     11 C11          0.4630    -0.1890    -4.6390 ca         1 TP2      -0.134500
     12 C12          1.7190    -0.7300    -4.3760 ca         1 TP2      -0.020300
     13 C13          2.2580    -0.5670    -3.0990 ca         1 TP2      -0.134500
     14 C14          1.5670     0.1090    -2.1110 ca         1 TP2      -0.014500
     15 C15          2.4900    -1.4540    -5.4380 c3         1 TP2      -0.057800
     16 O16          0.3370     1.9120    -0.1250 o          1 TP2      -0.529500
     17 O17         -1.5670     2.3260    -1.7260 o          1 TP2      -0.529500
     18 C18         -2.5770    -0.4370    -1.0650 c5         1 TP2       0.218800
     19 C19         -2.3930    -1.8950    -0.6690 c5         1 TP2      -0.097400
     20 C20         -1.7740    -1.8060     0.7180 c5         1 TP2      -0.077400
     21 O21         -1.4090     0.8070     2.4100 o          1 TP2      -0.563100
     22 HS1          0.4200    -1.1640     7.2730 hs         1 TP2       0.211800
     23 HC21        -0.7170    -0.7870     4.8520 h1         1 TP2       0.063200
     24 HC22         0.7580    -1.7640     4.7750 h1         1 TP2       0.063200
     25 HC31         2.0240     0.1990     3.9160 h1         1 TP2       0.074200
     26 HC32         0.5800     1.1940     4.0050 h1         1 TP2       0.074200
     27 HN41         1.2060    -0.8980     2.0590 hn         1 TP2       0.308500
     28 HC61         0.1500    -1.0020     0.1780 h1         1 TP2       0.045700
     29 H101        -1.2120     0.9150    -3.8970 ha         1 TP2       0.133500
     30 H111         0.0340    -0.2890    -5.6280 ha         1 TP2       0.117000
     31 H131         3.2400    -0.9660    -2.8760 ha         1 TP2       0.117000
     32 H141         2.0210     0.2530    -1.1400 ha         1 TP2       0.133500
     33 H151         3.4050    -0.9160    -5.6890 hc         1 TP2       0.049700
     34 H152         2.7870    -2.4460    -5.0970 hc         1 TP2       0.049700
     35 H153         1.9080    -1.5660    -6.3500 hc         1 TP2       0.049700
     36 H181        -3.5340    -0.0400    -0.7240 h1         1 TP2       0.063200
     37 H182        -2.5210    -0.2970    -2.1450 h1         1 TP2       0.063200
     38 H191        -3.3340    -2.4450    -0.6740 hc         1 TP2       0.055700
     39 H192        -1.7090    -2.3910    -1.3600 hc         1 TP2       0.055700
     40 H201        -2.5400    -1.5800     1.4620 hc         1 TP2       0.064200
     41 H202        -1.2580    -2.7140     1.0240 hc         1 TP2       0.064200
@<TRIPOS>BOND
     1     1     2 1   
     2     1    22 1   
     3     2     3 1   
     4     2    23 1   
     5     2    24 1   
     6     3     4 1   
     7     3    25 1   
     8     3    26 1   
     9     4     5 1   
    10     4    27 1   
    11     5     6 1   
    12     5    21 2   
    13     6     7 1   
    14     6    20 1   
    15     6    28 1   
    16     7     8 1   
    17     7    18 1   
    18     8     9 1   
    19     8    16 2   
    20     8    17 2   
    21     9    10 ar  
    22     9    14 ar  
    23    10    11 ar  
    24    10    29 1   
    25    11    12 ar  
    26    11    30 1   
    27    12    13 ar  
    28    12    15 1   
    29    13    14 ar  
    30    13    31 1   
    31    14    32 1   
    32    15    33 1   
    33    15    34 1   
    34    15    35 1   
    35    18    19 1   
    36    18    36 1   
    37    18    37 1   
    38    19    20 1   
    39    19    38 1   
    40    19    39 1   
    41    20    40 1   
    42    20    41 1   
@<TRIPOS>SUBSTRUCTURE
     1 TP2         1 TEMP              0 ****  ****    0 ROOT
