@<TRIPOS>MOLECULE
TP3
   46    47     1     0     0
SMALL
bcc


@<TRIPOS>ATOM
      1 C1          -1.9990     1.4440    -3.9250 c5         1 TP3      -0.102400
      2 C2          -1.7870    -0.0220    -4.2750 c5         1 TP3       0.224800
      3 N3          -0.3250    -0.1580    -4.2470 n3         1 TP3      -0.736500
      4 C4           0.3750     1.1290    -4.1940 c5         1 TP3       0.094500
      5 C5          -0.7580     2.1170    -4.4980 c5         1 TP3      -0.069400
      6 C6           1.5150     1.2650    -5.2220 c          1 TP3       0.944600
      7 O7           1.4230     0.6080    -6.2700 o          1 TP3      -0.826300
      8 O8           2.3940     2.0940    -4.9140 o          1 TP3      -0.826300
      9 S9           0.3610    -1.4970    -3.6450 sy         1 TP3       1.338200
     10 C10         -0.0120    -1.5100    -1.9060 ca         1 TP3      -0.301500
     11 O11          1.8020    -1.3490    -3.7700 o          1 TP3      -0.631800
     12 O12         -0.3080    -2.6460    -4.2360 o          1 TP3      -0.631800
     13 C13         -1.1040    -2.2260    -1.4330 ca         1 TP3      -0.058500
     14 C14         -1.3970    -2.2010    -0.0790 ca         1 TP3      -0.127000
     15 C15         -0.6220    -1.4500     0.8000 ca         1 TP3      -0.076600
     16 C16          0.4730    -0.7440     0.3100 ca         1 TP3      -0.127000
     17 C17          0.7870    -0.7760    -1.0390 ca         1 TP3      -0.058500
     18 C18         -0.9590    -1.4890     2.2600 c          1 TP3       0.663700
     19 N19         -0.6380    -0.3990     2.9630 ns         1 TP3      -0.491900
     20 C20         -0.9590    -0.2600     4.3660 c3         1 TP3      -0.046300
     21 C21         -0.1240     0.8660     4.9770 c3         1 TP3      -0.055400
     22 C22          1.3750     0.6340     4.8730 c3         1 TP3      -0.201400
     23 C23          2.2630     1.6750     5.5770 c          1 TP3       0.923600
     24 O24         -1.4640    -2.4910     2.7510 o          1 TP3      -0.644100
     25 C25         -2.4720    -0.0210     4.6090 c          1 TP3       0.929600
     26 O26         -2.8300    -0.1100     5.8010 o          1 TP3      -0.850800
     27 O27         -3.1810     0.2540     3.6270 o          1 TP3      -0.850800
     28 O28          3.4950     1.4810     5.4990 o          1 TP3      -0.868800
     29 O29          1.7030     2.6210     6.1660 o          1 TP3      -0.868800
     30 HC11        -2.9280     1.8340    -4.3390 hc         1 TP3       0.035200
     31 HC12        -2.0340     1.5680    -2.8410 hc         1 TP3       0.035200
     32 HC21        -2.1650    -0.2610    -5.2710 h1         1 TP3       0.036700
     33 HC22        -2.2830    -0.6880    -3.5660 h1         1 TP3       0.036700
     34 HC41         0.7550     1.3270    -3.1840 h1         1 TP3       0.042700
     35 HC51        -0.8670     2.2380    -5.5790 hc         1 TP3       0.044700
     36 HC52        -0.5580     3.0980    -4.0700 hc         1 TP3       0.044700
     37 H131        -1.7140    -2.8180    -2.1020 ha         1 TP3       0.143000
     38 H141        -2.2370    -2.7710     0.2930 ha         1 TP3       0.146000
     39 H161         1.1190    -0.1890     0.9770 ha         1 TP3       0.146000
     40 H171         1.6620    -0.2500    -1.3950 ha         1 TP3       0.143000
     41 H191        -0.4210     0.4460     2.4570 hn         1 TP3       0.304500
     42 H201        -0.6830    -1.1950     4.8630 h1         1 TP3       0.051700
     43 H211        -0.4130     0.9580     6.0240 hc         1 TP3       0.048700
     44 H212        -0.3950     1.8170     4.5040 hc         1 TP3       0.048700
     45 H221         1.6850     0.5860     3.8240 hc         1 TP3       0.012200
     46 H222         1.6190    -0.3540     5.2820 hc         1 TP3       0.012200
@<TRIPOS>BOND
     1     1     2 1   
     2     1     5 1   
     3     1    30 1   
     4     1    31 1   
     5     2     3 1   
     6     2    32 1   
     7     2    33 1   
     8     3     4 1   
     9     3     9 1   
    10     4     5 1   
    11     4     6 1   
    12     4    34 1   
    13     5    35 1   
    14     5    36 1   
    15     6     7 1   
    16     6     8 1   
    17     9    10 1   
    18     9    11 2   
    19     9    12 2   
    20    10    13 ar  
    21    10    17 ar  
    22    13    14 ar  
    23    13    37 1   
    24    14    15 ar  
    25    14    38 1   
    26    15    16 ar  
    27    15    18 1   
    28    16    17 ar  
    29    16    39 1   
    30    17    40 1   
    31    18    19 1   
    32    18    24 2   
    33    19    20 1   
    34    19    41 1   
    35    20    21 1   
    36    20    25 1   
    37    20    42 1   
    38    21    22 1   
    39    21    43 1   
    40    21    44 1   
    41    22    23 1   
    42    22    45 1   
    43    22    46 1   
    44    23    28 1   
    45    23    29 1   
    46    25    26 1   
    47    25    27 1   
@<TRIPOS>SUBSTRUCTURE
     1 TP3         1 TEMP              0 ****  ****    0 ROOT
