@<TRIPOS>MOLECULE
TP3
   46    47     1     0     0
SMALL
No Charge or Current Charge


@<TRIPOS>ATOM
      1 C1          -2.4080     0.6230    -4.6960 c5         1 TP3      -0.102400
      2 C2          -1.3610     0.9450    -3.6070 c5         1 TP3       0.224800
      3 N3          -0.1680     0.3360    -4.2110 n3         1 TP3      -0.736500
      4 C4          -0.1370     0.8780    -5.6120 c5         1 TP3       0.094500
      5 C5          -1.6510     0.9790    -6.0070 c5         1 TP3      -0.069400
      6 C6           0.6880     0.0450    -6.6850 c          1 TP3       0.734000
      7 O7           0.3030    -1.0650    -7.0390 o          1 TP3      -0.721000
      8 O8           1.6940     0.5500    -7.1720 o          1 TP3      -0.721000
      9 S9           1.2850     0.2380    -3.3300 sy         1 TP3       1.196600
     10 C10          0.7000    -0.0900    -1.6510 ca         1 TP3      -0.301500
     11 O11          1.9050     1.5690    -3.3760 o          1 TP3      -0.561000
     12 O12          1.9740    -0.9660    -3.8100 o          1 TP3      -0.561000
     13 C13          0.3030    -1.3910    -1.2850 ca         1 TP3      -0.040500
     14 C14         -0.1640    -1.6480     0.0140 ca         1 TP3      -0.109000
     15 C15         -0.2490    -0.6160     0.9770 ca         1 TP3      -0.076600
     16 C16          0.1510     0.6900     0.5970 ca         1 TP3      -0.109000
     17 C17          0.6190     0.9490    -0.7030 ca         1 TP3      -0.040500
     18 C18         -0.7610    -0.9340     2.3730 c          1 TP3       0.596700
     19 N19         -0.8320     0.1240     3.2590 ns         1 TP3      -0.424900
     20 C20         -1.2640     0.0440     4.6770 c3         1 TP3      -0.046300
     21 C21         -0.0600    -0.0460     5.6530 c3         1 TP3      -0.055400
     22 C22          0.8280    -1.3060     5.4770 c3         1 TP3      -0.201400
     23 C23          1.9140    -1.3460     6.5690 c          1 TP3       0.713000
     24 O24         -1.1010    -2.0670     2.6980 o          1 TP3      -0.644100
     25 C25         -2.1800     1.2570     5.0250 c          1 TP3       0.719000
     26 O26         -3.2770     1.0320     5.5170 o          1 TP3      -0.745500
     27 O27         -1.8090     2.3800     4.7080 o          1 TP3      -0.745500
     28 O28          1.6490    -1.8950     7.6280 o          1 TP3      -0.763500
     29 O29          2.9760    -0.7850     6.3500 o          1 TP3      -0.763500
     30 HC11        -2.6800    -0.4390    -4.6730 hc         1 TP3       0.035200
     31 HC12        -3.3320     1.2000    -4.5720 hc         1 TP3       0.035200
     32 HC21        -1.6390     0.4930    -2.6460 h1         1 TP3       0.036700
     33 HC22        -1.2370     2.0280    -3.4620 h1         1 TP3       0.036700
     34 HC41         0.2900     1.8910    -5.6010 h1         1 TP3       0.042700
     35 HC51        -1.9340     0.3030    -6.8220 hc         1 TP3       0.044700
     36 HC52        -1.8900     1.9940    -6.3440 hc         1 TP3       0.044700
     37 H131         0.3510    -2.2040    -2.0080 ha         1 TP3       0.125000
     38 H141        -0.4650    -2.6610     0.2720 ha         1 TP3       0.128000
     39 H161         0.1070     1.5200     1.2960 ha         1 TP3       0.128000
     40 H171         0.9160     1.9630    -0.9690 ha         1 TP3       0.125000
     41 H191        -0.5650     1.0340     2.9050 hn         1 TP3       0.304500
     42 H201        -1.8750    -0.8590     4.8030 h1         1 TP3       0.051700
     43 H211        -0.4490    -0.0330     6.6790 hc         1 TP3       0.048700
     44 H212         0.5620     0.8520     5.5450 hc         1 TP3       0.048700
     45 H221         1.2890    -1.2190     4.4860 hc         1 TP3       0.012200
     46 H222         0.1520    -2.1650     5.5770 hc         1 TP3       0.012200
@<TRIPOS>BOND
     1     1     2 1   
     2     1     5 1   
     3     1    30 1   
     4     1    31 1   
     5     2     3 1   
     6     2    32 1   
     7     2    33 1   
     8     3     4 1   
     9     3     9 1   
    10     4     5 1   
    11     4     6 1   
    12     4    34 1   
    13     5    35 1   
    14     5    36 1   
    15     6     7 1   
    16     6     8 1   
    17     9    10 1   
    18     9    11 2   
    19     9    12 2   
    20    10    13 ar  
    21    10    17 ar  
    22    13    14 ar  
    23    13    37 1   
    24    14    15 ar  
    25    14    38 1   
    26    15    16 ar  
    27    15    18 1   
    28    16    17 ar  
    29    16    39 1   
    30    17    40 1   
    31    18    19 1   
    32    18    24 2   
    33    19    20 1   
    34    19    41 1   
    35    20    21 1   
    36    20    25 1   
    37    20    42 1   
    38    21    22 1   
    39    21    43 1   
    40    21    44 1   
    41    22    23 1   
    42    22    45 1   
    43    22    46 1   
    44    23    28 1   
    45    23    29 1   
    46    25    26 1   
    47    25    27 1   
@<TRIPOS>SUBSTRUCTURE
     1 TP3         1 TEMP              0 ****  ****    0 ROOT
