@<TRIPOS>MOLECULE
TP4
   56    57     1     0     0
SMALL
abcg2


@<TRIPOS>ATOM
      1 C1          16.4110    13.9860    30.9730 c5         1 TP4      -0.097400
      2 C2          17.3340    14.5910    32.0200 c5         1 TP4       0.231800
      3 N3          16.7490    15.9180    32.2270 n3         1 TP4      -0.769500
      4 C4          15.8220    16.3120    31.1770 c5         1 TP4       0.155500
      5 C5          16.0000    15.1930    30.1380 c5         1 TP4      -0.079400
      6 C6          16.2040    17.6660    30.5860 c          1 TP4       0.600100
      7 O7          17.3700    18.0210    30.5110 o          1 TP4      -0.597100
      8 N8          15.1750    18.3630    30.0940 ns         1 TP4      -0.496900
      9 S9          16.7080    16.6160    33.6960 sy         1 TP4       1.197600
     10 C10         15.7460    15.5420    34.7330 ca         1 TP4      -0.304500
     11 O11         18.0580    16.6220    34.2330 o          1 TP4      -0.544000
     12 O12         15.9720    17.8610    33.5380 o          1 TP4      -0.544000
     13 C13         14.3580    15.6330    34.7110 ca         1 TP4      -0.040000
     14 C14         13.6130    14.7750    35.5010 ca         1 TP4      -0.101000
     15 C15         14.2390    13.8450    36.3270 ca         1 TP4      -0.064600
     16 C16         15.6290    13.7640    36.3290 ca         1 TP4      -0.101000
     17 C17         16.3870    14.6100    35.5350 ca         1 TP4      -0.040000
     18 C18         13.3820    12.9320    37.1580 c          1 TP4       0.588700
     19 N19         13.9530    12.4830    38.2780 ns         1 TP4      -0.435900
     20 C20         13.3180    11.6480    39.2760 c3         1 TP4      -0.052300
     21 C21         13.6920    10.1690    39.1060 c3         1 TP4      -0.047400
     22 C22         13.2580     9.5590    37.7840 c3         1 TP4      -0.202400
     23 C23         13.5170     8.0460    37.6290 c          1 TP4       0.714000
     24 O24         12.2470    12.6530    36.7900 o          1 TP4      -0.643100
     25 C25         13.7400    12.1390    40.6870 c          1 TP4       0.715000
     26 O26         13.1180    11.6380    41.6400 o          1 TP4      -0.742000
     27 O27         14.6780    12.9600    40.7390 o          1 TP4      -0.742000
     28 O28         14.1270     7.4600    38.5450 o          1 TP4      -0.765000
     29 O29         13.0880     7.5300    36.5750 o          1 TP4      -0.765000
     30 C30         15.3260    19.6250    29.3920 c3         1 TP4       0.122000
     31 C31         15.3660    20.8340    30.3160 c3         1 TP4      -0.231400
     32 C32         15.5010    22.1840    29.5810 c          1 TP4       0.722000
     33 O33         15.3190    23.2060    30.2720 o          1 TP4      -0.749000
     34 O34         15.7890    22.1450    28.3670 o          1 TP4      -0.749000
     35 HC11        16.9010    13.2120    30.3850 hc         1 TP4       0.051200
     36 HC12        15.5390    13.5440    31.4580 hc         1 TP4       0.051200
     37 HC21        17.3540    14.0060    32.9410 h1         1 TP4       0.054700
     38 HC22        18.3600    14.6810    31.6560 h1         1 TP4       0.054700
     39 HC41        14.7880    16.3180    31.5370 h1         1 TP4       0.053700
     40 HC51        16.7970    15.4500    29.4370 hc         1 TP4       0.053200
     41 HC52        15.0860    15.0360    29.5670 hc         1 TP4       0.053200
     42 HN81        14.2400    18.0270    30.2600 hn         1 TP4       0.294500
     43 H131        13.8570    16.3660    34.0940 ha         1 TP4       0.121500
     44 H141        12.5340    14.8400    35.4830 ha         1 TP4       0.134000
     45 H161        16.1410    13.0280    36.9340 ha         1 TP4       0.134000
     46 H171        17.4650    14.5360    35.5530 ha         1 TP4       0.121500
     47 H191        14.7910    12.9330    38.6210 hn         1 TP4       0.330500
     48 H201        12.2330    11.7490    39.1780 h1         1 TP4       0.053700
     49 H211        14.7750    10.0670    39.2280 hc         1 TP4       0.045700
     50 H212        13.2370     9.6180    39.9300 hc         1 TP4       0.045700
     51 H221        12.1900     9.7410    37.6270 hc         1 TP4       0.017700
     52 H222        13.7570    10.0700    36.9530 hc         1 TP4       0.017700
     53 H301        16.2320    19.5780    28.7890 h1         1 TP4       0.046700
     54 H302        14.4900    19.7080    28.6980 h1         1 TP4       0.046700
     55 H311        14.4680    20.8540    30.9400 hc         1 TP4       0.037700
     56 H312        16.2060    20.7310    31.0120 hc         1 TP4       0.037700
@<TRIPOS>BOND
     1     1     2 1   
     2     1     5 1   
     3     1    35 1   
     4     1    36 1   
     5     2     3 1   
     6     2    37 1   
     7     2    38 1   
     8     3     4 1   
     9     3     9 1   
    10     4     5 1   
    11     4     6 1   
    12     4    39 1   
    13     5    40 1   
    14     5    41 1   
    15     6     7 2   
    16     6     8 1   
    17     8    30 1   
    18     8    42 1   
    19     9    10 1   
    20     9    11 2   
    21     9    12 2   
    22    10    13 ar  
    23    10    17 ar  
    24    13    14 ar  
    25    13    43 1   
    26    14    15 ar  
    27    14    44 1   
    28    15    16 ar  
    29    15    18 1   
    30    16    17 ar  
    31    16    45 1   
    32    17    46 1   
    33    18    19 1   
    34    18    24 2   
    35    19    20 1   
    36    19    47 1   
    37    20    21 1   
    38    20    25 1   
    39    20    48 1   
    40    21    22 1   
    41    21    49 1   
    42    21    50 1   
    43    22    23 1   
    44    22    51 1   
    45    22    52 1   
    46    23    28 1   
    47    23    29 1   
    48    25    26 1   
    49    25    27 1   
    50    30    31 1   
    51    30    53 1   
    52    30    54 1   
    53    31    32 1   
    54    31    55 1   
    55    31    56 1   
    56    32    33 1   
    57    32    34 1   
@<TRIPOS>SUBSTRUCTURE
     1 TP4         1 TEMP              0 ****  ****    0 ROOT
