@<TRIPOS>MOLECULE
TP4
   56    57     1     0     0
SMALL
No Charge or Current Charge


@<TRIPOS>ATOM
      1 C1          15.9080    13.7820    30.5520 c5         1 TP4      -0.097400
      2 C2          15.2150    14.3650    31.8220 c5         1 TP4       0.231800
      3 N3          15.7280    15.7480    31.9140 n3         1 TP4      -0.769500
      4 C4          15.8870    16.1890    30.5030 c5         1 TP4       0.155500
      5 C5          16.6850    14.9860    29.9450 c5         1 TP4      -0.079400
      6 C6          16.6810    17.5350    30.2660 c          1 TP4       0.600100
      7 O7          17.8930    17.7160    30.3320 o          1 TP4      -0.597100
      8 N8          15.7940    18.5280    29.8910 ns         1 TP4      -0.496900
      9 S9          15.0660    16.8220    33.0530 sy         1 TP4       1.197600
     10 C10         14.5450    15.7060    34.3760 ca         1 TP4      -0.304500
     11 O11         16.1860    17.6310    33.5460 o          1 TP4      -0.544000
     12 O12         13.8800    17.4150    32.4260 o          1 TP4      -0.544000
     13 C13         13.2020    15.2930    34.4760 ca         1 TP4      -0.040000
     14 C14         12.8090    14.4150    35.5000 ca         1 TP4      -0.101000
     15 C15         13.7430    13.9290    36.4450 ca         1 TP4      -0.064600
     16 C16         15.0920    14.3500    36.3310 ca         1 TP4      -0.101000
     17 C17         15.4870    15.2290    35.3080 ca         1 TP4      -0.040000
     18 C18         13.2760    12.9800    37.5360 c          1 TP4       0.588700
     19 N19         14.2330    12.5550    38.4390 ns         1 TP4      -0.435900
     20 C20         14.0130    11.6060    39.5590 c3         1 TP4      -0.052300
     21 C21         14.4160    10.1530    39.1880 c3         1 TP4      -0.047400
     22 C22         13.6030     9.5300    38.0230 c3         1 TP4      -0.202400
     23 C23         14.0040     8.0570    37.8260 c          1 TP4       0.714000
     24 O24         12.1090    12.6120    37.6220 o          1 TP4      -0.643100
     25 C25         14.7790    12.0910    40.8280 c          1 TP4       0.715000
     26 O26         14.1610    12.1770    41.8800 o          1 TP4      -0.742000
     27 O27         15.9390    12.4630    40.7020 o          1 TP4      -0.742000
     28 O28         14.9350     7.8060    37.0760 o          1 TP4      -0.765000
     29 O29         13.4080     7.2050    38.4660 o          1 TP4      -0.765000
     30 C30         16.1650    19.9150    29.6090 c3         1 TP4       0.122000
     31 C31         16.2990    20.7430    30.8980 c3         1 TP4      -0.231400
     32 C32         16.6440    22.1860    30.5240 c          1 TP4       0.722000
     33 O33         15.7250    22.9600    30.3080 o          1 TP4      -0.749000
     34 O34         17.8220    22.4850    30.4040 o          1 TP4      -0.749000
     35 HC11        16.5810    12.9530    30.7990 hc         1 TP4       0.051200
     36 HC12        15.1610    13.3920    29.8510 hc         1 TP4       0.051200
     37 HC21        14.1220    14.3550    31.6990 h1         1 TP4       0.054700
     38 HC22        15.4550    13.7750    32.7170 h1         1 TP4       0.054700
     39 HC41        14.9100    16.2650    30.0040 h1         1 TP4       0.053700
     40 HC51        17.7230    14.9950    30.2960 hc         1 TP4       0.053200
     41 HC52        16.7080    14.9660    28.8490 hc         1 TP4       0.053200
     42 HN81        14.8100    18.2840    29.8770 hn         1 TP4       0.294500
     43 H131        12.4590    15.6450    33.7630 ha         1 TP4       0.121500
     44 H141        11.7670    14.1090    35.5570 ha         1 TP4       0.134000
     45 H161        15.8520    14.0050    37.0260 ha         1 TP4       0.134000
     46 H171        16.5300    15.5320    35.2380 ha         1 TP4       0.121500
     47 H191        15.1650    12.9330    38.3260 hn         1 TP4       0.330500
     48 H201        12.9460    11.6120    39.8150 h1         1 TP4       0.053700
     49 H211        15.4840    10.1270    38.9380 hc         1 TP4       0.045700
     50 H212        14.2890     9.5250    40.0790 hc         1 TP4       0.045700
     51 H221        12.5490     9.6030    38.3200 hc         1 TP4       0.017700
     52 H222        13.8530    10.1140    37.1290 hc         1 TP4       0.017700
     53 H301        17.1130    19.9300    29.0530 h1         1 TP4       0.046700
     54 H302        15.3910    20.3560    28.9670 h1         1 TP4       0.046700
     55 H311        15.3220    20.6950    31.3930 hc         1 TP4       0.037700
     56 H312        17.1140    20.2870    31.4740 hc         1 TP4       0.037700
@<TRIPOS>BOND
     1     1     2 1   
     2     1     5 1   
     3     1    35 1   
     4     1    36 1   
     5     2     3 1   
     6     2    37 1   
     7     2    38 1   
     8     3     4 1   
     9     3     9 1   
    10     4     5 1   
    11     4     6 1   
    12     4    39 1   
    13     5    40 1   
    14     5    41 1   
    15     6     7 2   
    16     6     8 1   
    17     8    30 1   
    18     8    42 1   
    19     9    10 1   
    20     9    11 2   
    21     9    12 2   
    22    10    13 ar  
    23    10    17 ar  
    24    13    14 ar  
    25    13    43 1   
    26    14    15 ar  
    27    14    44 1   
    28    15    16 ar  
    29    15    18 1   
    30    16    17 ar  
    31    16    45 1   
    32    17    46 1   
    33    18    19 1   
    34    18    24 2   
    35    19    20 1   
    36    19    47 1   
    37    20    21 1   
    38    20    25 1   
    39    20    48 1   
    40    21    22 1   
    41    21    49 1   
    42    21    50 1   
    43    22    23 1   
    44    22    51 1   
    45    22    52 1   
    46    23    28 1   
    47    23    29 1   
    48    25    26 1   
    49    25    27 1   
    50    30    31 1   
    51    30    53 1   
    52    30    54 1   
    53    31    32 1   
    54    31    55 1   
    55    31    56 1   
    56    32    33 1   
    57    32    34 1   
@<TRIPOS>SUBSTRUCTURE
     1 TP4         1 TEMP              0 ****  ****    0 ROOT
