@<TRIPOS>MOLECULE
TP5
   14    14     1     0     0
SMALL
abcg2


@<TRIPOS>ATOM
      1 C4           0.4720     0.9910     0.1920 cc         1 TP5      -0.236000
      2 S1           2.1230     0.5600     0.1210 ss         1 TP5       0.213000
      3 C5           1.7410    -1.1000    -0.0840 cc         1 TP5      -0.257000
      4 C3           0.3990    -1.3060    -0.0920 cd         1 TP5      -0.083000
      5 C1          -0.3450    -0.0980     0.0620 cd         1 TP5      -0.162900
      6 C2          -1.8230    -0.0670     0.0960 cf         1 TP5       0.678800
      7 N2          -2.3890     1.1710    -0.0210 nv         1 TP5      -1.073200
      8 N1          -2.4440    -1.1690     0.2810 n2         1 TP5      -0.826100
      9 HC4          0.1950     2.0240     0.3430 h4         1 TP5       0.150000
     10 HC5          2.5260    -1.8320    -0.1920 h4         1 TP5       0.152000
     11 HC3         -0.0590    -2.2760    -0.2120 ha         1 TP5       0.156000
     12 HN21        -1.8960     1.8750    -0.5450 hn         1 TP5       0.459500
     13 HN22        -3.3880     1.2090    -0.1430 hn         1 TP5       0.459500
     14 HN1         -3.4510    -1.0280     0.2640 hn         1 TP5       0.369400
@<TRIPOS>BOND
     1     1     2 1   
     2     1     5 2   
     3     1     9 1   
     4     2     3 1   
     5     3     4 2   
     6     3    10 1   
     7     4     5 1   
     8     4    11 1   
     9     5     6 1   
    10     6     7 1   
    11     6     8 2   
    12     7    12 1   
    13     7    13 1   
    14     8    14 1   
@<TRIPOS>SUBSTRUCTURE
     1 TP5         1 TEMP              0 ****  ****    0 ROOT
