@<TRIPOS>MOLECULE
TP5
   14    14     1     0     0
SMALL
No Charge or Current Charge


@<TRIPOS>ATOM
      1 C4           0.4580     1.0010     0.0690 cc         1 TP5      -0.236000
      2 S1           2.1680     0.5910     0.0210 ss         1 TP5       0.213000
      3 C5           1.7810    -1.1170    -0.0550 cc         1 TP5      -0.257000
      4 C3           0.4240    -1.3140    -0.0440 cd         1 TP5      -0.083000
      5 C1          -0.3580    -0.1180     0.0240 cd         1 TP5      -0.162900
      6 C2          -1.8350    -0.0950     0.0520 cf         1 TP5       0.678800
      7 N2          -2.4310     1.0910     0.0720 nv         1 TP5      -1.073200
      8 N1          -2.5320    -1.1580     0.0480 n2         1 TP5      -0.826100
      9 HC4          0.1870     2.0460     0.1320 h4         1 TP5       0.150000
     10 HC5          2.5800    -1.8460    -0.1020 h4         1 TP5       0.152000
     11 HC3         -0.0200    -2.3050    -0.0850 ha         1 TP5       0.156000
     12 HN21        -1.8550     1.9070    -0.0920 hn         1 TP5       0.459500
     13 HN22        -3.4000     1.1660    -0.2120 hn         1 TP5       0.459500
     14 HN1         -3.5050    -0.8960     0.2410 hn         1 TP5       0.369400
@<TRIPOS>BOND
     1     1     2 1   
     2     1     5 2   
     3     1     9 1   
     4     2     3 1   
     5     3     4 2   
     6     3    10 1   
     7     4     5 1   
     8     4    11 1   
     9     5     6 1   
    10     6     7 1   
    11     6     8 2   
    12     7    12 1   
    13     7    13 1   
    14     8    14 1   
@<TRIPOS>SUBSTRUCTURE
     1 TP5         1 TEMP              0 ****  ****    0 ROOT
