@<TRIPOS>MOLECULE
TP7
   40    39     1     0     0
SMALL
abcg2


@<TRIPOS>ATOM
      1 N           -0.7950     0.2720    -0.6310 ns         1 TP7      -0.397900
      2 P           -4.6030    -1.6680     0.4170 p5         1 TP7       1.286900
      3 O1P         -5.2880    -2.2950    -0.7960 o          1 TP7      -0.936500
      4 O2P         -5.3350    -0.4570     0.9820 o          1 TP7      -0.936500
      5 O3P         -4.1110    -2.6670     1.4580 o          1 TP7      -0.936500
      6 O4P         -3.1160    -1.0680    -0.1600 os         1 TP7      -0.593400
      7 CB          -3.1200    -0.1150    -1.1900 c3         1 TP7       0.251300
      8 C           -2.4850     1.8480     0.3040 c          1 TP7       0.750000
      9 OXT         -3.4200     2.6320     0.0420 o          1 TP7      -0.748500
     10 O           -1.8760     1.7400     1.3820 o          1 TP7      -0.748500
     11 CA          -2.0510     0.9390    -0.8730 c3         1 TP7      -0.052300
     12 CG          -2.8800    -0.7820    -2.5390 c3         1 TP7      -0.111100
     13 O1           0.5160     2.0760    -0.9770 o          1 TP7      -0.696100
     14 C1           0.3720     0.9280    -0.5710 c          1 TP7       0.581100
     15 C2           1.5140     0.1400     0.0380 c3         1 TP7      -0.170400
     16 C3           2.8880     0.5640    -0.4570 c3         1 TP7      -0.060400
     17 C4           4.0100    -0.2090     0.2250 c3         1 TP7      -0.079400
     18 C5           5.3940     0.2180    -0.2470 c3         1 TP7      -0.073400
     19 C6           6.5150    -0.5490     0.4430 c3         1 TP7      -0.072400
     20 C7           7.8860    -0.1020    -0.0410 c3         1 TP7       0.099600
     21 S7           9.1780    -1.0550     0.8270 sh         1 TP7      -0.485800
     22 H           -0.8570    -0.6070    -0.1400 hn         1 TP7       0.330500
     23 HA          -1.9400     1.5770    -1.7550 h1         1 TP7       0.015700
     24 HB          -4.0760     0.4200    -1.2310 h1         1 TP7       0.059700
     25 HG1C        -2.9030    -0.0540    -3.3520 hc         1 TP7       0.001700
     26 HG2C        -1.9130    -1.2890    -2.5700 hc         1 TP7       0.001700
     27 HG3C        -3.6600    -1.5220    -2.7190 hc         1 TP7       0.001700
     28 H21C         1.4550     0.2790     1.1240 hc         1 TP7       0.051200
     29 H22C         1.3660    -0.9300    -0.1320 hc         1 TP7       0.051200
     30 H31C         2.9530     0.4190    -1.5390 hc         1 TP7       0.038700
     31 H32C         3.0250     1.6340    -0.2810 hc         1 TP7       0.038700
     32 H41C         3.9370    -0.0730     1.3100 hc         1 TP7       0.035200
     33 H42C         3.8800    -1.2820     0.0450 hc         1 TP7       0.035200
     34 H51C         5.4690     0.0770    -1.3300 hc         1 TP7       0.032700
     35 H52C         5.5220     1.2910    -0.0680 hc         1 TP7       0.032700
     36 H61C         6.4430    -0.4070     1.5260 hc         1 TP7       0.052700
     37 H62C         6.3940    -1.6210     0.2590 hc         1 TP7       0.052700
     38 H71C         7.9820    -0.2650    -1.1150 h1         1 TP7       0.052700
     39 H72C         8.0300     0.9610     0.1570 h1         1 TP7       0.052700
     40 H7          10.2430    -0.5090     0.2310 hs         1 TP7       0.191800
@<TRIPOS>BOND
     1     1    11 1   
     2     1    14 1   
     3     1    22 1   
     4     2     3 1   
     5     2     4 1   
     6     2     5 1   
     7     2     6 1   
     8     6     7 1   
     9     7    11 1   
    10     7    12 1   
    11     7    24 1   
    12     8     9 1   
    13     8    10 1   
    14     8    11 1   
    15    11    23 1   
    16    12    25 1   
    17    12    26 1   
    18    12    27 1   
    19    13    14 2   
    20    14    15 1   
    21    15    16 1   
    22    15    28 1   
    23    15    29 1   
    24    16    17 1   
    25    16    30 1   
    26    16    31 1   
    27    17    18 1   
    28    17    32 1   
    29    17    33 1   
    30    18    19 1   
    31    18    34 1   
    32    18    35 1   
    33    19    20 1   
    34    19    36 1   
    35    19    37 1   
    36    20    21 1   
    37    20    38 1   
    38    20    39 1   
    39    21    40 1   
@<TRIPOS>SUBSTRUCTURE
     1 TP7         1 TEMP              0 ****  ****    0 ROOT
