@<TRIPOS>MOLECULE
TP7
   40    39     1     0     0
SMALL
No Charge or Current Charge


@<TRIPOS>ATOM
      1 N           -0.9370     1.1260     0.4910 ns         1 TP7      -0.397900
      2 P           -2.7700    -2.6220    -1.1540 p5         1 TP7       1.286900
      3 O1P         -2.0850    -2.9210    -2.4410 o          1 TP7      -0.936500
      4 O2P         -4.2430    -2.5670    -1.3600 o          1 TP7      -0.936500
      5 O3P         -2.4610    -3.7100    -0.1860 o          1 TP7      -0.936500
      6 O4P         -2.2550    -1.2260    -0.5320 os         1 TP7      -0.593400
      7 CB          -2.6030     0.0520    -1.1040 c3         1 TP7       0.251300
      8 C           -3.3780     1.0640     1.1000 c          1 TP7       0.750000
      9 OXT         -4.4890     1.5350     0.8890 o          1 TP7      -0.748500
     10 O           -3.0280     0.6720     2.2080 o          1 TP7      -0.748500
     11 CA          -2.3270     1.1530    -0.0430 c3         1 TP7      -0.052300
     12 CG          -1.8290     0.2760    -2.4290 c3         1 TP7      -0.111100
     13 O1           0.0120     2.7000    -0.8680 o          1 TP7      -0.696100
     14 C1           0.1250     1.8620     0.0180 c          1 TP7       0.581100
     15 C2           1.4590     1.5940     0.7260 c3         1 TP7      -0.170400
     16 C3           2.4230     0.7830    -0.1720 c3         1 TP7      -0.060400
     17 C4           3.7780     0.4900     0.5080 c3         1 TP7      -0.079400
     18 C5           4.7420    -0.3170    -0.3900 c3         1 TP7      -0.073400
     19 C6           6.0990    -0.6070     0.2890 c3         1 TP7      -0.072400
     20 C7           7.0600    -1.4110    -0.6070 c3         1 TP7       0.099600
     21 S7           8.6900    -1.7600     0.2010 sh         1 TP7      -0.485800
     22 H           -0.7430     0.4780     1.2450 hn         1 TP7       0.330500
     23 HA          -2.4810     2.1280    -0.5230 h1         1 TP7       0.015700
     24 HB          -3.6760     0.0860    -1.3420 h1         1 TP7       0.059700
     25 HG1C        -1.9410     1.3150    -2.7620 hc         1 TP7       0.001700
     26 HG2C        -0.7590     0.0710    -2.3060 hc         1 TP7       0.001700
     27 HG3C        -2.2220    -0.3590    -3.2310 hc         1 TP7       0.001700
     28 H21C         1.9320     2.5540     0.9640 hc         1 TP7       0.051200
     29 H22C         1.2880     1.0250     1.6490 hc         1 TP7       0.051200
     30 H31C         1.9440    -0.1650    -0.4480 hc         1 TP7       0.038700
     31 H32C         2.5980     1.3350    -1.1040 hc         1 TP7       0.038700
     32 H41C         4.2540     1.4390     0.7850 hc         1 TP7       0.035200
     33 H42C         3.6030    -0.0640     1.4380 hc         1 TP7       0.035200
     34 H51C         4.2680    -1.2670    -0.6660 hc         1 TP7       0.032700
     35 H52C         4.9170     0.2370    -1.3210 hc         1 TP7       0.032700
     36 H61C         6.5780     0.3410     0.5640 hc         1 TP7       0.052700
     37 H62C         5.9290    -1.1630     1.2190 hc         1 TP7       0.052700
     38 H71C         6.5950    -2.3700    -0.8740 h1         1 TP7       0.052700
     39 H72C         7.2470    -0.8540    -1.5350 h1         1 TP7       0.052700
     40 H7           9.2260    -2.4460    -0.8390 hs         1 TP7       0.191800
@<TRIPOS>BOND
     1     1    11 1   
     2     1    14 1   
     3     1    22 1   
     4     2     3 1   
     5     2     4 1   
     6     2     5 1   
     7     2     6 1   
     8     6     7 1   
     9     7    11 1   
    10     7    12 1   
    11     7    24 1   
    12     8     9 1   
    13     8    10 1   
    14     8    11 1   
    15    11    23 1   
    16    12    25 1   
    17    12    26 1   
    18    12    27 1   
    19    13    14 2   
    20    14    15 1   
    21    15    16 1   
    22    15    28 1   
    23    15    29 1   
    24    16    17 1   
    25    16    30 1   
    26    16    31 1   
    27    17    18 1   
    28    17    32 1   
    29    17    33 1   
    30    18    19 1   
    31    18    34 1   
    32    18    35 1   
    33    19    20 1   
    34    19    36 1   
    35    19    37 1   
    36    20    21 1   
    37    20    38 1   
    38    20    39 1   
    39    21    40 1   
@<TRIPOS>SUBSTRUCTURE
     1 TP7         1 TEMP              0 ****  ****    0 ROOT
