@<TRIPOS>MOLECULE
TPA
   22    23     1     0     0
SMALL
bcc


@<TRIPOS>ATOM
      1 C1           2.1740     0.2680     0.4520 cx         1 TPA       0.002500
      2 C2           1.1600    -0.2670    -0.5080 cx         1 TPA      -0.009400
      3 C3           2.0280     0.9110    -0.8740 cx         1 TPA      -0.098400
      4 C7          -0.2910    -0.1340    -0.2220 ca         1 TPA      -0.111300
      5 C8          -1.1370    -1.2110    -0.4760 ca         1 TPA      -0.108500
      6 C9          -2.4980    -1.1230    -0.2180 ca         1 TPA      -0.114500
      7 C4          -3.0350     0.0460     0.3020 ca         1 TPA      -0.089000
      8 C5          -2.2000     1.1260     0.5590 ca         1 TPA      -0.114500
      9 C6          -0.8400     1.0380     0.2980 ca         1 TPA      -0.108500
     10 N            3.3690    -0.5330     0.7270 nz         1 TPA      -0.797600
     11 H1           1.8410     0.7850     1.3420 hx         1 TPA       0.149700
     12 H2           1.4330    -1.1980    -0.9940 hc         1 TPA       0.093700
     13 H31          1.5900     1.9000    -0.8950 hc         1 TPA       0.113200
     14 H32          2.7970     0.7460    -1.6170 hc         1 TPA       0.113200
     15 H7          -0.7280    -2.1290    -0.8810 ha         1 TPA       0.127500
     16 H3          -3.1390    -1.9700    -0.4260 ha         1 TPA       0.151000
     17 H4          -4.0960     0.1180     0.5030 ha         1 TPA       0.154000
     18 H5          -2.6070     2.0440     0.9610 ha         1 TPA       0.151000
     19 H6          -0.2130     1.8980     0.5010 ha         1 TPA       0.127500
     20 HN1          4.1510     0.0520     1.0250 hn         1 TPA       0.455800
     21 HN2          3.6880    -1.0570    -0.0890 hn         1 TPA       0.455800
     22 HN3          3.2020    -1.2140     1.4680 hn         1 TPA       0.455800
@<TRIPOS>BOND
     1     1     2 1   
     2     1     3 1   
     3     1    10 1   
     4     1    11 1   
     5     2     3 1   
     6     2     4 1   
     7     2    12 1   
     8     3    13 1   
     9     3    14 1   
    10     4     5 ar  
    11     4     9 ar  
    12     5     6 ar  
    13     5    15 1   
    14     6     7 ar  
    15     6    16 1   
    16     7     8 ar  
    17     7    17 1   
    18     8     9 ar  
    19     8    18 1   
    20     9    19 1   
    21    10    20 1   
    22    10    21 1   
    23    10    22 1   
@<TRIPOS>SUBSTRUCTURE
     1 TPA         1 TEMP              0 ****  ****    0 ROOT
