@<TRIPOS>MOLECULE
TPA
   22    23     1     0     0
SMALL
No Charge or Current Charge


@<TRIPOS>ATOM
      1 C1           2.2020     0.3280     0.4360 cx         1 TPA      -0.025700
      2 C2           1.1650    -0.3360    -0.4410 cx         1 TPA      -0.009400
      3 C3           2.0050     0.8030    -0.9790 cx         1 TPA      -0.098400
      4 C7          -0.3130    -0.1780    -0.1840 ca         1 TPA      -0.111300
      5 C8          -1.2030    -1.1960    -0.5840 ca         1 TPA      -0.090500
      6 C9          -2.5840    -1.0700    -0.3550 ca         1 TPA      -0.096500
      7 C4          -3.0910     0.0770     0.2770 ca         1 TPA      -0.071000
      8 C5          -2.2140     1.0980     0.6790 ca         1 TPA      -0.096500
      9 C6          -0.8320     0.9730     0.4500 ca         1 TPA      -0.090500
     10 N            3.4800    -0.4340     0.7750 nz         1 TPA      -0.935000
     11 H1           1.8670     0.9610     1.2610 hx         1 TPA       0.149700
     12 H2           1.4150    -1.3280    -0.8100 hc         1 TPA       0.093700
     13 H31          1.5230     1.7650    -1.1300 hc         1 TPA       0.113200
     14 H32          2.7660     0.5620    -1.7180 hc         1 TPA       0.113200
     15 H7          -0.8260    -2.0900    -1.0760 ha         1 TPA       0.109500
     16 H3          -3.2610    -1.8620    -0.6680 ha         1 TPA       0.133000
     17 H4          -4.1600     0.1750     0.4540 ha         1 TPA       0.136000
     18 H5          -2.6050     1.9880     1.1680 ha         1 TPA       0.133000
     19 H6          -0.1720     1.7760     0.7680 ha         1 TPA       0.109500
     20 HN1          4.2770     0.1810     1.0090 hn         1 TPA       0.511000
     21 HN2          3.8260    -1.0400     0.0150 hn         1 TPA       0.511000
     22 HN3          3.3820    -1.0590     1.5910 hn         1 TPA       0.511000
@<TRIPOS>BOND
     1     1     2 1   
     2     1     3 1   
     3     1    10 1   
     4     1    11 1   
     5     2     3 1   
     6     2     4 1   
     7     2    12 1   
     8     3    13 1   
     9     3    14 1   
    10     4     5 ar  
    11     4     9 ar  
    12     5     6 ar  
    13     5    15 1   
    14     6     7 ar  
    15     6    16 1   
    16     7     8 ar  
    17     7    17 1   
    18     8     9 ar  
    19     8    18 1   
    20     9    19 1   
    21    10    20 1   
    22    10    21 1   
    23    10    22 1   
@<TRIPOS>SUBSTRUCTURE
     1 TPA         1 TEMP              0 ****  ****    0 ROOT
