@<TRIPOS>MOLECULE
TPB
   44    46     1     0     0
SMALL
No Charge or Current Charge


@<TRIPOS>ATOM
      1 C1           0.3000     0.1270     3.6070 ca         1 TPB       0.254000
      2 N7           0.6900     0.1640     2.2580 nu         1 TPB      -0.957900
      3 C2           0.9790    -0.7450     4.4960 ca         1 TPB      -0.062800
      4 C21          2.1130    -1.6500     4.0110 c3         1 TPB      -0.049300
      5 C3           0.5970    -0.8010     5.8500 ca         1 TPB      -0.113000
      6 C4          -0.4460     0.0030     6.3350 ca         1 TPB      -0.060300
      7 C5          -1.1020     0.8840     5.4610 ca         1 TPB      -0.113000
      8 C6          -0.7370     0.9630     4.1030 ca         1 TPB      -0.062800
      9 C61         -1.4570     1.9920     3.2280 c3         1 TPB      -0.049300
     10 C8          -0.0030    -0.0270     1.0800 ca         1 TPB       0.427900
     11 N1           0.6900     0.2150    -0.0370 nb         1 TPB      -0.335000
     12 C9           0.0400     0.0080    -1.1910 ca         1 TPB       0.418900
     13 N5           0.7810     0.3110    -2.3210 nu         1 TPB      -0.930900
     14 N3          -1.2330    -0.4030    -1.3370 nb         1 TPB      -0.263000
     15 C10         -1.9150    -0.6590    -0.2050 ca         1 TPB       0.162900
     16 C7          -1.3220    -0.4870     1.0530 ca         1 TPB      -0.319000
     17 C11          0.5830     0.1620    -3.6960 ca         1 TPB       0.354000
     18 C12         -0.2370    -0.8460    -4.2360 ca         1 TPB      -0.171000
     19 C13         -0.3960    -0.9690    -5.6280 ca         1 TPB      -0.038000
     20 C14          0.2740    -0.0860    -6.4960 ca         1 TPB      -0.067000
     21 C15          1.1080     0.9130    -5.9610 ca         1 TPB      -0.038000
     22 C16          1.2630     1.0290    -4.5670 ca         1 TPB      -0.171000
     23 C17          0.1140    -0.2100    -7.9180 cg         1 TPB       0.334000
     24 N6          -0.0070    -0.3070    -9.0760 n1         1 TPB      -0.468000
     25 C41         -0.8490    -0.0650     7.8010 c3         1 TPB      -0.048800
     26 HN7          1.6980     0.1370     2.1130 hn         1 TPB       0.512000
     27 H211         1.7830    -2.2870     3.1820 hc         1 TPB       0.047867
     28 H212         2.9690    -1.0580     3.6650 hc         1 TPB       0.047867
     29 H213         2.4740    -2.3130     4.8060 hc         1 TPB       0.047867
     30 H3           1.1130    -1.4750     6.5310 ha         1 TPB       0.116000
     31 H5          -1.8970     1.5220     5.8430 ha         1 TPB       0.116000
     32 H611        -2.3370     1.5540     2.7450 hc         1 TPB       0.047867
     33 H612        -1.8020     2.8460     3.8220 hc         1 TPB       0.047867
     34 H613        -0.8040     2.3960     2.4460 hc         1 TPB       0.047867
     35 HN5          1.6300     0.8220    -2.0860 hn         1 TPB       0.509000
     36 H10         -2.9410    -1.0080    -0.3110 h4         1 TPB       0.021100
     37 H7          -1.8660    -0.7110     1.9630 ha         1 TPB       0.144000
     38 H12         -0.7420    -1.5520    -3.5860 ha         1 TPB       0.137000
     39 H13         -1.0350    -1.7540    -6.0290 ha         1 TPB       0.123500
     40 H15          1.6370     1.5990    -6.6210 ha         1 TPB       0.123500
     41 H16          1.9090     1.8050    -4.1670 ha         1 TPB       0.137000
     42 H411        -0.2730     0.6520     8.3970 hc         1 TPB       0.045367
     43 H412        -1.9130     0.1660     7.9350 hc         1 TPB       0.045367
     44 H413        -0.6750    -1.0640     8.2180 hc         1 TPB       0.045367
@<TRIPOS>BOND
     1     1     2 1   
     2     1     3 ar  
     3     1     8 ar  
     4     2    10 1   
     5     2    26 1   
     6     3     4 1   
     7     3     5 ar  
     8     4    27 1   
     9     4    28 1   
    10     4    29 1   
    11     5     6 ar  
    12     5    30 1   
    13     6     7 ar  
    14     6    25 1   
    15     7     8 ar  
    16     7    31 1   
    17     8     9 1   
    18     9    32 1   
    19     9    33 1   
    20     9    34 1   
    21    10    11 ar  
    22    10    16 ar  
    23    11    12 ar  
    24    12    13 1   
    25    12    14 ar  
    26    13    17 1   
    27    13    35 1   
    28    14    15 ar  
    29    15    16 ar  
    30    15    36 1   
    31    16    37 1   
    32    17    18 ar  
    33    17    22 ar  
    34    18    19 ar  
    35    18    38 1   
    36    19    20 ar  
    37    19    39 1   
    38    20    21 ar  
    39    20    23 1   
    40    21    22 ar  
    41    21    40 1   
    42    22    41 1   
    43    23    24 3   
    44    25    42 1   
    45    25    43 1   
    46    25    44 1   
@<TRIPOS>SUBSTRUCTURE
     1 TPB         1 TEMP              0 ****  ****    0 ROOT
