@<TRIPOS>MOLECULE
TPB
   44    46     1     0     0
SMALL
abcg2


@<TRIPOS>ATOM
      1 C1           0.3040     0.3590     3.5800 ca         1 TPB       0.254000
      2 N7           0.7520     0.6100     2.2610 nu         1 TPB      -0.957900
      3 C2           0.9510    -0.6180     4.3410 ca         1 TPB      -0.062800
      4 C21          2.0950    -1.3990     3.7670 c3         1 TPB      -0.049300
      5 C3           0.5100    -0.8480     5.6390 ca         1 TPB      -0.113000
      6 C4          -0.5550    -0.1390     6.1860 ca         1 TPB      -0.060300
      7 C5          -1.1800     0.8240     5.4010 ca         1 TPB      -0.113000
      8 C6          -0.7630     1.0950     4.1010 ca         1 TPB      -0.062800
      9 C61         -1.4560     2.1450     3.2840 c3         1 TPB      -0.049300
     10 C8           0.1430     0.1630     1.1460 ca         1 TPB       0.427900
     11 N1           0.7140     0.4790    -0.0130 nb         1 TPB      -0.335000
     12 C9           0.1260     0.0480    -1.1240 ca         1 TPB       0.418900
     13 N5           0.7920     0.4140    -2.2670 nu         1 TPB      -0.930900
     14 N3          -0.9850    -0.6670    -1.2080 nb         1 TPB      -0.263000
     15 C10         -1.5440    -0.9820    -0.0350 ca         1 TPB       0.162900
     16 C7          -1.0380    -0.6060     1.1810 ca         1 TPB      -0.319000
     17 C11          0.5370     0.1700    -3.5970 ca         1 TPB       0.354000
     18 C12         -0.5860    -0.5070    -4.0910 ca         1 TPB      -0.171000
     19 C13         -0.7410    -0.6890    -5.4510 ca         1 TPB      -0.038000
     20 C14          0.2070    -0.2060    -6.3530 ca         1 TPB      -0.067000
     21 C15          1.3290     0.4700    -5.8670 ca         1 TPB      -0.038000
     22 C16          1.4880     0.6530    -4.5130 ca         1 TPB      -0.171000
     23 C17          0.0340    -0.4000    -7.7510 cg         1 TPB       0.334000
     24 N6          -0.1070    -0.5550    -8.8860 n1         1 TPB      -0.468000
     25 C41         -1.0000    -0.3870     7.5970 c3         1 TPB      -0.048800
     26 HN7          1.6350     1.0810     2.1260 hn         1 TPB       0.512000
     27 H211         1.8320    -1.8550     2.8120 hc         1 TPB       0.047867
     28 H212         2.9650    -0.7630     3.5860 hc         1 TPB       0.047867
     29 H213         2.4070    -2.1930     4.4440 hc         1 TPB       0.047867
     30 H3           1.0060    -1.6050     6.2380 ha         1 TPB       0.116000
     31 H5          -2.0110     1.3870     5.8130 ha         1 TPB       0.116000
     32 H611        -2.1040     1.6980     2.5270 hc         1 TPB       0.047867
     33 H612        -2.0770     2.7800     3.9140 hc         1 TPB       0.047867
     34 H613        -0.7450     2.7810     2.7570 hc         1 TPB       0.047867
     35 HN5          1.6320     0.9410    -2.0760 hn         1 TPB       0.509000
     36 H10         -2.4500    -1.5750    -0.0860 h4         1 TPB       0.021100
     37 H7          -1.5180    -0.8910     2.1060 ha         1 TPB       0.144000
     38 H12         -1.3310    -0.8900    -3.4130 ha         1 TPB       0.137000
     39 H13         -1.6150    -1.2120    -5.8160 ha         1 TPB       0.123500
     40 H15          2.0770     0.8500    -6.5490 ha         1 TPB       0.123500
     41 H16          2.3650     1.1750    -4.1500 ha         1 TPB       0.137000
     42 H411        -0.4490     0.2450     8.2970 hc         1 TPB       0.045367
     43 H412        -2.0590    -0.1660     7.7280 hc         1 TPB       0.045367
     44 H413        -0.8320    -1.4220     7.8960 hc         1 TPB       0.045367
@<TRIPOS>BOND
     1     1     2 1   
     2     1     3 ar  
     3     1     8 ar  
     4     2    10 1   
     5     2    26 1   
     6     3     4 1   
     7     3     5 ar  
     8     4    27 1   
     9     4    28 1   
    10     4    29 1   
    11     5     6 ar  
    12     5    30 1   
    13     6     7 ar  
    14     6    25 1   
    15     7     8 ar  
    16     7    31 1   
    17     8     9 1   
    18     9    32 1   
    19     9    33 1   
    20     9    34 1   
    21    10    11 ar  
    22    10    16 ar  
    23    11    12 ar  
    24    12    13 1   
    25    12    14 ar  
    26    13    17 1   
    27    13    35 1   
    28    14    15 ar  
    29    15    16 ar  
    30    15    36 1   
    31    16    37 1   
    32    17    18 ar  
    33    17    22 ar  
    34    18    19 ar  
    35    18    38 1   
    36    19    20 ar  
    37    19    39 1   
    38    20    21 ar  
    39    20    23 1   
    40    21    22 ar  
    41    21    40 1   
    42    22    41 1   
    43    23    24 3   
    44    25    42 1   
    45    25    43 1   
    46    25    44 1   
@<TRIPOS>SUBSTRUCTURE
     1 TPB         1 TEMP              0 ****  ****    0 ROOT
