@<TRIPOS>MOLECULE
TPD
   29    30     1     0     0
SMALL
No Charge or Current Charge


@<TRIPOS>ATOM
      1 C3          -4.5720     2.2190    15.7440 cc         1 TPD      -0.456500
      2 C9          -3.5720     6.5520    14.4400 c3         1 TPD       0.285100
      3 C10         -2.6020     7.6940    14.3450 cc         1 TPD      -0.236300
      4 C11         -1.6110     7.8910    13.4150 cd         1 TPD      -0.092000
      5 C12         -0.8580     9.0760    13.6280 cd         1 TPD      -0.135000
      6 C13         -1.2640     9.7920    14.7260 cc         1 TPD      -0.221000
      7 O1A         -3.2470     0.7840    17.5260 o          1 TPD      -0.531000
      8 O2A         -5.5180     1.8200    18.1690 o          1 TPD      -0.531000
      9 N21         -5.3720    -0.0800    16.6250 n8         1 TPD      -1.005100
     10 S1          -4.5990     1.2330    17.1980 sy         1 TPD       1.202600
     11 C4          -3.7550     2.0640    14.6480 cd         1 TPD      -0.024000
     12 C5          -3.9760     3.0530    13.6550 cd         1 TPD      -0.024000
     13 C6          -4.9460     3.9580    14.0130 cc         1 TPD      -0.448500
     14 S2          -5.6220     3.6150    15.5900 ss         1 TPD       0.431000
     15 S7          -5.5190     5.3390    13.0710 sy         1 TPD       1.210600
     16 O3B         -5.5980     4.9290    11.6680 o          1 TPD      -0.534000
     17 O4B         -6.6260     5.9830    13.7780 o          1 TPD      -0.534000
     18 N8          -4.2420     6.3970    13.1490 n7         1 TPD      -0.875300
     19 S14         -2.6110     8.9950    15.5340 ss         1 TPD       0.184000
     20 H91         -4.2950     6.7590    15.2430 h1         1 TPD       0.065200
     21 H92         -3.0190     5.6420    14.7140 h1         1 TPD       0.065200
     22 H11         -1.4240     7.2050    12.5930 ha         1 TPD       0.142000
     23 H12         -0.0390     9.3860    12.9850 ha         1 TPD       0.140000
     24 H13         -0.8760    10.7220    15.1210 h4         1 TPD       0.154000
     25 HNL1        -5.7240     0.2770    15.7410 hn         1 TPD       0.483500
     26 HNL2        -6.1890    -0.0910    17.2300 hn         1 TPD       0.483500
     27 H4          -3.0190     1.2700    14.5460 ha         1 TPD       0.156000
     28 H5          -3.4280     3.0920    12.7160 ha         1 TPD       0.157000
     29 HN8         -4.7120     7.2700    12.9260 hn         1 TPD       0.486000
@<TRIPOS>BOND
     1     1    10 1   
     2     1    11 2   
     3     1    14 1   
     4     2     3 1   
     5     2    18 1   
     6     2    20 1   
     7     2    21 1   
     8     3     4 2   
     9     3    19 1   
    10     4     5 1   
    11     4    22 1   
    12     5     6 2   
    13     5    23 1   
    14     6    19 1   
    15     6    24 1   
    16     7    10 2   
    17     8    10 2   
    18     9    10 1   
    19     9    25 1   
    20     9    26 1   
    21    11    12 1   
    22    11    27 1   
    23    12    13 2   
    24    12    28 1   
    25    13    14 1   
    26    13    15 1   
    27    15    16 2   
    28    15    17 2   
    29    15    18 1   
    30    18    29 1   
@<TRIPOS>SUBSTRUCTURE
     1 TPD         1 TEMP              0 ****  ****    0 ROOT
