@<TRIPOS>MOLECULE
TPD
   29    30     1     0     0
SMALL
abcg2


@<TRIPOS>ATOM
      1 C3          -4.6520     2.1490    15.9680 cc         1 TPD      -0.456500
      2 C9          -2.8420     6.3960    13.5290 c3         1 TPD       0.285100
      3 C10         -2.2530     7.7290    13.8480 cc         1 TPD      -0.236300
      4 C11         -2.0730     8.7900    13.0030 cd         1 TPD      -0.092000
      5 C12         -1.5150     9.9290    13.6460 cd         1 TPD      -0.135000
      6 C13         -1.2800     9.7170    14.9760 cc         1 TPD      -0.221000
      7 O1A         -3.7350     0.3980    17.6300 o          1 TPD      -0.531000
      8 O2A         -5.4890     2.0080    18.4030 o          1 TPD      -0.531000
      9 N21         -6.1000     0.0630    17.0140 n8         1 TPD      -1.005100
     10 S1          -4.9400     1.1470    17.3870 sy         1 TPD       1.202600
     11 C4          -3.7640     1.8900    14.9560 cd         1 TPD      -0.024000
     12 C5          -3.8530     2.8460    13.9180 cd         1 TPD      -0.024000
     13 C6          -4.8120     3.7930    14.1720 cc         1 TPD      -0.448500
     14 S2          -5.6090     3.5510    15.6800 ss         1 TPD       0.431000
     15 S7          -5.2030     5.1730    13.1540 sy         1 TPD       1.210600
     16 O3B         -4.7520     4.8410    11.8270 o          1 TPD      -0.534000
     17 O4B         -6.5820     5.5080    13.4020 o          1 TPD      -0.534000
     18 N8          -4.3170     6.4460    13.6570 n7         1 TPD      -0.875300
     19 S14         -1.7360     8.1300    15.4500 ss         1 TPD       0.184000
     20 H91         -2.4250     5.6210    14.1780 h1         1 TPD       0.065200
     21 H92         -2.6160     6.1360    12.4980 h1         1 TPD       0.065200
     22 H11         -2.3320     8.7520    11.9530 ha         1 TPD       0.142000
     23 H12         -1.2930    10.8590    13.1430 ha         1 TPD       0.140000
     24 H13         -0.8590    10.3990    15.6980 h4         1 TPD       0.154000
     25 HNL1        -5.8200    -0.6020    16.3000 hn         1 TPD       0.483500
     26 HNL2        -7.0020     0.4870    16.8190 hn         1 TPD       0.483500
     27 H4          -3.0880     1.0490    14.9580 ha         1 TPD       0.156000
     28 H5          -3.2490     2.8380    13.0230 ha         1 TPD       0.157000
     29 HN8         -4.6460     6.8050    14.5480 hn         1 TPD       0.486000
@<TRIPOS>BOND
     1     1    10 1   
     2     1    11 2   
     3     1    14 1   
     4     2     3 1   
     5     2    18 1   
     6     2    20 1   
     7     2    21 1   
     8     3     4 2   
     9     3    19 1   
    10     4     5 1   
    11     4    22 1   
    12     5     6 2   
    13     5    23 1   
    14     6    19 1   
    15     6    24 1   
    16     7    10 2   
    17     8    10 2   
    18     9    10 1   
    19     9    25 1   
    20     9    26 1   
    21    11    12 1   
    22    11    27 1   
    23    12    13 2   
    24    12    28 1   
    25    13    14 1   
    26    13    15 1   
    27    15    16 2   
    28    15    17 2   
    29    15    18 1   
    30    18    29 1   
@<TRIPOS>SUBSTRUCTURE
     1 TPD         1 TEMP              0 ****  ****    0 ROOT
