@<TRIPOS>MOLECULE
TPE
   54    56     1     0     0
SMALL
No Charge or Current Charge


@<TRIPOS>ATOM
      1 C1B         -1.4580    -0.5560    -2.7340 ca         1 TPE       0.226100
      2 C2B         -2.7110    -1.1880    -2.6250 ca         1 TPE      -0.151000
      3 C3B         -3.7740    -0.5560    -1.9550 ca         1 TPE      -0.111500
      4 C4B         -3.5860     0.7130    -1.3850 ca         1 TPE      -0.186000
      5 C5B         -2.3300     1.3400    -1.4620 ca         1 TPE      -0.111500
      6 C6B         -1.2660     0.7080    -2.1330 ca         1 TPE      -0.151000
      7 PA           3.2530    -0.6060    -2.7510 p5         1 TPE       1.454800
      8 O1A          3.8140     0.3290    -3.7720 o          1 TPE      -0.846500
      9 O2A          3.7990    -1.9940    -2.8710 o          1 TPE      -0.846500
     10 O3A          1.6830    -0.5560    -2.6230 os         1 TPE      -0.686800
     11 PB           0.9220    -0.6240    -4.0030 p5         1 TPE       1.456800
     12 O1B          0.7190     0.7310    -4.6040 o          1 TPE      -0.835500
     13 O2B          1.5020    -1.6000    -4.9770 o          1 TPE      -0.835500
     14 O3B         -0.4700    -1.2160    -3.4270 os         1 TPE      -0.456500
     15 O5           3.5800    -0.0190    -1.2860 os         1 TPE      -0.568400
     16 C5           3.2950    -0.8190    -0.1270 c3         1 TPE       0.225600
     17 C4           2.6180     0.0810     0.9380 c5         1 TPE       0.167300
     18 O4           1.2830     0.4650     0.5510 os         1 TPE      -0.405000
     19 C3           2.3740    -0.6030     2.3090 c5         1 TPE       0.135300
     20 O3           3.6100    -0.5420     3.0740 os         1 TPE      -0.429100
     21 CR           3.6000    -1.2440     4.2590 c          1 TPE       0.597100
     22 OR           2.6790    -1.9450     4.6580 o          1 TPE      -0.504000
     23 CHR          4.9320    -1.1170     4.9880 c3         1 TPE      -0.159100
     24 C2           1.3400     0.3690     2.9620 c5         1 TPE      -0.139400
     25 C1           0.6760     1.0400     1.7180 c5         1 TPE       0.344700
     26 N1          -0.7870     0.8020     1.8020 n          1 TPE      -0.311000
     27 C9          -1.3270    -0.4660     1.4880 c          1 TPE       0.621000
     28 O2          -0.6650    -1.4460     1.1860 o          1 TPE      -0.526000
     29 N3          -2.6780    -0.5740     1.5950 ns         1 TPE      -0.467500
     30 C8          -3.5770     0.3810     1.9440 c          1 TPE       0.597200
     31 O6          -4.7700     0.1280     2.0000 o          1 TPE      -0.561000
     32 C7          -2.9770     1.7000     2.2460 cc         1 TPE      -0.297400
     33 C5M         -3.9400     2.8040     2.6190 c3         1 TPE      -0.008900
     34 C6          -1.6120     1.8630     2.1720 cd         1 TPE       0.022600
     35 H2B         -2.8590    -2.1670    -3.0750 ha         1 TPE       0.132000
     36 H3B         -4.7440    -1.0470    -1.8860 ha         1 TPE       0.078500
     37 H4B         -4.4090     1.2060    -0.8720 ha         1 TPE       0.073000
     38 H5B         -2.1820     2.3150    -1.0040 ha         1 TPE       0.078500
     39 H6B         -0.3020     1.2060    -2.1730 ha         1 TPE       0.132000
     40 H5'2         4.2280    -1.2240     0.2890 h1         1 TPE       0.032700
     41 H5'1         2.6310    -1.6630    -0.3590 h1         1 TPE       0.032700
     42 H4           3.2260     0.9890     1.0660 h1         1 TPE       0.073700
     43 H3           2.0060    -1.6350     2.1940 h1         1 TPE       0.101700
     44 HHR3         4.9650    -1.7070     5.9120 hc         1 TPE       0.066033
     45 HHR2         5.7390    -1.3960     4.3010 hc         1 TPE       0.066033
     46 HHR1         5.1400    -0.0560     5.1710 hc         1 TPE       0.066033
     47 H2'2         0.6250    -0.1690     3.5960 hc         1 TPE       0.061700
     48 H2'1         1.8200     1.1270     3.5910 hc         1 TPE       0.061700
     49 H1           0.8450     2.1240     1.7250 h2         1 TPE       0.046700
     50 H7          -3.0600    -1.4800     1.3820 hn         1 TPE       0.339500
     51 H5M3        -4.6290     3.0190     1.7920 hc         1 TPE       0.036033
     52 H5M2        -4.5370     2.5310     3.4990 hc         1 TPE       0.036033
     53 H5M1        -3.4060     3.7330     2.8550 hc         1 TPE       0.036033
     54 H6          -1.0930     2.7960     2.3860 h4         1 TPE       0.198000
@<TRIPOS>BOND
     1     1     2 ar  
     2     1     6 ar  
     3     1    14 1   
     4     2     3 ar  
     5     2    35 1   
     6     3     4 ar  
     7     3    36 1   
     8     4     5 ar  
     9     4    37 1   
    10     5     6 ar  
    11     5    38 1   
    12     6    39 1   
    13     7     8 1   
    14     7     9 1   
    15     7    10 1   
    16     7    15 1   
    17    10    11 1   
    18    11    12 1   
    19    11    13 1   
    20    11    14 1   
    21    15    16 1   
    22    16    17 1   
    23    16    40 1   
    24    16    41 1   
    25    17    18 1   
    26    17    19 1   
    27    17    42 1   
    28    18    25 1   
    29    19    20 1   
    30    19    24 1   
    31    19    43 1   
    32    20    21 1   
    33    21    22 2   
    34    21    23 1   
    35    23    44 1   
    36    23    45 1   
    37    23    46 1   
    38    24    25 1   
    39    24    47 1   
    40    24    48 1   
    41    25    26 1   
    42    25    49 1   
    43    26    27 1   
    44    26    34 1   
    45    27    28 2   
    46    27    29 1   
    47    29    30 1   
    48    29    50 1   
    49    30    31 2   
    50    30    32 1   
    51    32    33 1   
    52    32    34 2   
    53    33    51 1   
    54    33    52 1   
    55    33    53 1   
    56    34    54 1   
@<TRIPOS>SUBSTRUCTURE
     1 TPE         1 TEMP              0 ****  ****    0 ROOT
