@<TRIPOS>MOLECULE
TPE
   54    56     1     0     0
SMALL
bcc


@<TRIPOS>ATOM
      1 C1B         -1.1960     0.3100    -5.7980 ca         1 TPE       0.226100
      2 C2B         -1.9840    -0.5560    -6.5500 ca         1 TPE      -0.169000
      3 C3B         -2.2480    -0.2670    -7.8820 ca         1 TPE      -0.129500
      4 C4B         -1.7210     0.8740    -8.4730 ca         1 TPE      -0.204000
      5 C5B         -0.9260     1.7290    -7.7200 ca         1 TPE      -0.129500
      6 C6B         -0.6580     1.4500    -6.3870 ca         1 TPE      -0.169000
      7 PA           0.6980    -1.7900    -1.3700 p5         1 TPE       1.454800
      8 O1A          2.0510    -2.2360    -1.8250 o          1 TPE      -0.846500
      9 O2A         -0.3250    -2.7830    -0.9210 o          1 TPE      -0.846500
     10 O3A          0.0190    -0.7800    -2.4750 os         1 TPE      -0.686800
     11 PB           0.3880    -0.8130    -4.0700 p5         1 TPE       1.456800
     12 O1B          1.5870     0.0300    -4.3550 o          1 TPE      -0.835500
     13 O2B          0.2600    -2.1950    -4.6200 o          1 TPE      -0.835500
     14 O3B         -0.9810     0.0550    -4.4780 os         1 TPE      -0.456500
     15 O5           0.8600    -0.6160    -0.2250 os         1 TPE      -0.545200
     16 C5           1.4980    -0.9820     0.9790 c3         1 TPE       0.202400
     17 C4           1.5510     0.2150     1.8960 c5         1 TPE       0.144100
     18 O4           0.2460     0.5760     2.3080 os         1 TPE      -0.358600
     19 C3           2.3360    -0.0610     3.1800 c5         1 TPE       0.112100
     20 O3           3.6900     0.3130     2.9340 os         1 TPE      -0.405900
     21 CR           4.6100    -0.0340     3.8340 c          1 TPE       0.646100
     22 OR           4.3460    -0.6020     4.8630 o          1 TPE      -0.553000
     23 CHR          5.9850     0.3590     3.3870 c3         1 TPE      -0.159100
     24 C2           1.6300     0.7990     4.2200 c5         1 TPE      -0.139400
     25 C1           0.2410     1.0560     3.6210 c5         1 TPE       0.321500
     26 N1          -0.8770     0.4600     4.3460 n          1 TPE      -0.378000
     27 C9          -0.9030    -0.8980     4.5640 c          1 TPE       0.830500
     28 O2          -0.0180    -1.6500     4.2110 o          1 TPE      -0.601500
     29 N3          -2.0160    -1.3460     5.2250 ns         1 TPE      -0.601500
     30 C8          -3.0930    -0.6070     5.6810 c          1 TPE       0.739700
     31 O6          -4.0170    -1.1500     6.2580 o          1 TPE      -0.636500
     32 C7          -3.0040     0.8120     5.4030 cc         1 TPE      -0.297400
     33 C5M         -4.1150     1.7070     5.8430 c3         1 TPE      -0.008900
     34 C6          -1.9150     1.2580     4.7530 cd         1 TPE       0.072600
     35 H2B         -2.3940    -1.4440    -6.0870 ha         1 TPE       0.150000
     36 H3B         -2.8680    -0.9400    -8.4600 ha         1 TPE       0.096500
     37 H4B         -1.9290     1.0960    -9.5120 ha         1 TPE       0.091000
     38 H5B         -0.5080     2.6200    -8.1710 ha         1 TPE       0.096500
     39 H6B         -0.0420     2.1170    -5.7990 ha         1 TPE       0.150000
     40 H5'2         2.5260    -1.3160     0.7960 h1         1 TPE       0.032700
     41 H5'1         0.9680    -1.7980     1.4850 h1         1 TPE       0.032700
     42 H4           2.0190     1.0580     1.3680 h1         1 TPE       0.073700
     43 H3           2.2930    -1.1170     3.4480 h1         1 TPE       0.101700
     44 HHR3         6.7000     0.2160     4.1920 hc         1 TPE       0.066033
     45 HHR2         6.2870    -0.2550     2.5370 hc         1 TPE       0.066033
     46 HHR1         6.0090     1.3980     3.0610 hc         1 TPE       0.066033
     47 H2'2         1.5920     0.3400     5.2040 hc         1 TPE       0.061700
     48 H2'1         2.1470     1.7550     4.3230 hc         1 TPE       0.061700
     49 H1           0.0300     2.1280     3.6290 h2         1 TPE       0.046700
     50 H7          -2.0430    -2.3440     5.3960 hn         1 TPE       0.339500
     51 H5M3        -5.0660     1.4070     5.4020 hc         1 TPE       0.036033
     52 H5M2        -4.2400     1.6810     6.9260 hc         1 TPE       0.036033
     53 H5M1        -3.9220     2.7390     5.5530 hc         1 TPE       0.036033
     54 H6          -1.8010     2.3070     4.5160 h4         1 TPE       0.148000
@<TRIPOS>BOND
     1     1     2 ar  
     2     1     6 ar  
     3     1    14 1   
     4     2     3 ar  
     5     2    35 1   
     6     3     4 ar  
     7     3    36 1   
     8     4     5 ar  
     9     4    37 1   
    10     5     6 ar  
    11     5    38 1   
    12     6    39 1   
    13     7     8 1   
    14     7     9 1   
    15     7    10 1   
    16     7    15 1   
    17    10    11 1   
    18    11    12 1   
    19    11    13 1   
    20    11    14 1   
    21    15    16 1   
    22    16    17 1   
    23    16    40 1   
    24    16    41 1   
    25    17    18 1   
    26    17    19 1   
    27    17    42 1   
    28    18    25 1   
    29    19    20 1   
    30    19    24 1   
    31    19    43 1   
    32    20    21 1   
    33    21    22 2   
    34    21    23 1   
    35    23    44 1   
    36    23    45 1   
    37    23    46 1   
    38    24    25 1   
    39    24    47 1   
    40    24    48 1   
    41    25    26 1   
    42    25    49 1   
    43    26    27 1   
    44    26    34 1   
    45    27    28 2   
    46    27    29 1   
    47    29    30 1   
    48    29    50 1   
    49    30    31 2   
    50    30    32 1   
    51    32    33 1   
    52    32    34 2   
    53    33    51 1   
    54    33    52 1   
    55    33    53 1   
    56    34    54 1   
@<TRIPOS>SUBSTRUCTURE
     1 TPE         1 TEMP              0 ****  ****    0 ROOT
