@<TRIPOS>MOLECULE
TPF
   34    36     1     0     0
SMALL
No Charge or Current Charge


@<TRIPOS>ATOM
      1 O           -0.2440     1.6180     0.8030 oh         1 TPF      -0.620000
      2 C1           0.2340     0.3040     0.4820 c3         1 TPF       0.223300
      3 C2           1.4290     0.0190     1.4480 c3         1 TPF       0.071100
      4 C5          -0.9420    -0.6980     0.7320 c3         1 TPF       0.071100
      5 C8           0.7160     0.2620    -0.9930 ca         1 TPF      -0.189300
      6 N1           1.1150     0.1310     2.8920 na         1 TPF      -0.064200
      7 C3           1.2080    -0.8560     3.8450 cc         1 TPF       0.407400
      8 N3           0.6980     1.3020     3.4450 nc         1 TPF      -0.523800
      9 N2           0.8500    -0.3430     5.0080 nd         1 TPF      -0.692500
     10 C4           0.5480     0.9790     4.7250 cd         1 TPF       0.517900
     11 N4          -2.1590    -0.4630    -0.0790 na         1 TPF      -0.064200
     12 C6          -2.3040    -0.5900    -1.4410 cc         1 TPF       0.407400
     13 N6          -3.3380    -0.1160     0.5030 nc         1 TPF      -0.523800
     14 N5          -3.5590    -0.3160    -1.7530 nd         1 TPF      -0.692500
     15 C7          -4.1580    -0.0260    -0.5370 cd         1 TPF       0.517900
     16 C9           0.6270     1.4070    -1.8290 ca         1 TPF      -0.033000
     17 C13          1.2540    -0.9250    -1.5580 ca         1 TPF       0.193000
     18 C10          1.0590     1.3580    -3.1660 ca         1 TPF      -0.163000
     19 C11          1.5840     0.1740    -3.6930 ca         1 TPF       0.215000
     20 F1           1.9960     0.1320    -4.9780 f          1 TPF      -0.163000
     21 C12          1.6810    -0.9670    -2.8920 ca         1 TPF      -0.196000
     22 F2           1.3570    -2.0580    -0.8310 f          1 TPF      -0.187000
     23 HO          -0.0640     1.7320     1.7690 ho         1 TPF       0.461000
     24 HC21         1.8210    -0.9890     1.2700 h1         1 TPF       0.082450
     25 HC22         2.2420     0.7200     1.2200 h1         1 TPF       0.082450
     26 HC51        -0.6070    -1.7250     0.5510 h1         1 TPF       0.082450
     27 HC52        -1.2300    -0.6480     1.7900 h1         1 TPF       0.082450
     28 HC3          1.5240    -1.8710     3.6330 h5         1 TPF       0.062600
     29 HC4          0.2200     1.6720     5.4920 h5         1 TPF       0.066100
     30 HC6         -1.5050    -0.8800    -2.1130 h5         1 TPF       0.062600
     31 HC7         -5.2070     0.2410    -0.4620 h5         1 TPF       0.066100
     32 HC9          0.2230     2.3480    -1.4610 ha         1 TPF       0.140000
     33 H10          0.9850     2.2420    -3.7950 ha         1 TPF       0.145000
     34 H12          2.0870    -1.8850    -3.3050 ha         1 TPF       0.155000
@<TRIPOS>BOND
     1     1     2 1   
     2     1    23 1   
     3     2     3 1   
     4     2     4 1   
     5     2     5 1   
     6     3     6 1   
     7     3    24 1   
     8     3    25 1   
     9     4    11 1   
    10     4    26 1   
    11     4    27 1   
    12     5    16 ar  
    13     5    17 ar  
    14     6     7 1   
    15     6     8 1   
    16     7     9 2   
    17     7    28 1   
    18     8    10 2   
    19     9    10 1   
    20    10    29 1   
    21    11    12 1   
    22    11    13 1   
    23    12    14 2   
    24    12    30 1   
    25    13    15 2   
    26    14    15 1   
    27    15    31 1   
    28    16    18 ar  
    29    16    32 1   
    30    17    21 ar  
    31    17    22 1   
    32    18    19 ar  
    33    18    33 1   
    34    19    20 1   
    35    19    21 ar  
    36    21    34 1   
@<TRIPOS>SUBSTRUCTURE
     1 TPF         1 TEMP              0 ****  ****    0 ROOT
