@<TRIPOS>MOLECULE
TPF
   34    36     1     0     0
SMALL
bcc


@<TRIPOS>ATOM
      1 O           -0.3410     1.5850     0.9570 oh         1 TPF      -0.557800
      2 C1           0.2000     0.3470     0.5990 c3         1 TPF       0.200100
      3 C2           1.4300     0.0340     1.4780 c3         1 TPF       0.041800
      4 C5          -0.9150    -0.6860     0.8530 c3         1 TPF       0.041800
      5 C8           0.6140     0.3340    -0.8740 ca         1 TPF      -0.189300
      6 N1           1.1370     0.0760     2.8890 na         1 TPF      -0.034900
      7 C3           0.8790    -0.9420     3.7180 cc         1 TPF       0.407400
      8 N3           1.0680     1.2300     3.5600 nc         1 TPF      -0.523800
      9 N2           0.6370    -0.4900     4.9260 nd         1 TPF      -0.692500
     10 C4           0.7650     0.8460     4.7760 cd         1 TPF       0.517900
     11 N4          -1.9940    -0.5810    -0.0950 na         1 TPF      -0.034900
     12 C6          -2.2070    -1.3200    -1.1890 cc         1 TPF       0.407400
     13 N6          -2.9190     0.3800    -0.0140 nc         1 TPF      -0.523800
     14 N5          -3.2590    -0.8760    -1.8360 nd         1 TPF      -0.692500
     15 C7          -3.6570     0.1670    -1.0750 cd         1 TPF       0.517900
     16 C9           0.4120     1.4560    -1.6740 ca         1 TPF      -0.051000
     17 C13          1.1660    -0.7740    -1.5050 ca         1 TPF       0.157900
     18 C10          0.7620     1.4830    -3.0150 ca         1 TPF      -0.181000
     19 C11          1.3210     0.3520    -3.5720 ca         1 TPF       0.179900
     20 F1           1.6700     0.3570    -4.8630 f          1 TPF      -0.127900
     21 C12          1.5300    -0.7960    -2.8360 ca         1 TPF      -0.214000
     22 F2           1.3480    -1.9110    -0.8100 f          1 TPF      -0.151900
     23 HO           0.3640     2.2350     1.0620 ho         1 TPF       0.422000
     24 HC21         1.8400    -0.9480     1.2580 h1         1 TPF       0.082450
     25 HC22         2.2130     0.7660     1.2730 h1         1 TPF       0.082450
     26 HC51        -0.5230    -1.7000     0.7950 h1         1 TPF       0.082450
     27 HC52        -1.3250    -0.5480     1.8530 h1         1 TPF       0.082450
     28 HC3          0.8880    -1.9750     3.4030 h5         1 TPF       0.062600
     29 HC4          0.6360     1.5510     5.5830 h5         1 TPF       0.066100
     30 HC6         -1.5960    -2.1670    -1.4610 h5         1 TPF       0.062600
     31 HC7         -4.5160     0.7780    -1.3070 h5         1 TPF       0.066100
     32 HC9         -0.0380     2.3400    -1.2470 ha         1 TPF       0.158000
     33 H10          0.5960     2.3700    -3.6120 ha         1 TPF       0.163000
     34 H12          1.9580    -1.6870    -3.2780 ha         1 TPF       0.173000
@<TRIPOS>BOND
     1     1     2 1   
     2     1    23 1   
     3     2     3 1   
     4     2     4 1   
     5     2     5 1   
     6     3     6 1   
     7     3    24 1   
     8     3    25 1   
     9     4    11 1   
    10     4    26 1   
    11     4    27 1   
    12     5    16 ar  
    13     5    17 ar  
    14     6     7 1   
    15     6     8 1   
    16     7     9 2   
    17     7    28 1   
    18     8    10 2   
    19     9    10 1   
    20    10    29 1   
    21    11    12 1   
    22    11    13 1   
    23    12    14 2   
    24    12    30 1   
    25    13    15 2   
    26    14    15 1   
    27    15    31 1   
    28    16    18 ar  
    29    16    32 1   
    30    17    21 ar  
    31    17    22 1   
    32    18    19 ar  
    33    18    33 1   
    34    19    20 1   
    35    19    21 ar  
    36    21    34 1   
@<TRIPOS>SUBSTRUCTURE
     1 TPF         1 TEMP              0 ****  ****    0 ROOT
