@<TRIPOS>MOLECULE
TPI
   43    44     1     0     0
SMALL
bcc


@<TRIPOS>ATOM
      1 P           -0.5880     0.5240    -6.1960 p5         1 TPI       1.105700
      2 O1          -1.8820     0.7980    -5.4410 o          1 TPI      -0.899833
      3 O2           0.4390     1.6520    -6.1690 o          1 TPI      -0.899833
      4 O3          -0.7570    -0.1600    -7.5500 o          1 TPI      -0.899833
      5 C1           0.2320    -0.8050    -5.1320 c3         1 TPI       0.352700
      6 F1           1.4310    -1.2020    -5.6990 f          1 TPI      -0.280300
      7 F2          -0.5380    -1.9500    -5.1230 f          1 TPI      -0.280300
      8 C2          -0.3430    -0.7410    -2.7000 ca         1 TPI      -0.121000
      9 C3           0.5000    -0.3910    -3.7210 ca         1 TPI      -0.032300
     10 C4           1.6290     0.4190    -3.4450 ca         1 TPI      -0.054000
     11 C5           1.9060     0.8190    -2.1690 ca         1 TPI      -0.167000
     12 C6           1.3370     0.8240     0.2360 ca         1 TPI      -0.055000
     13 C7           0.5210     0.4280     1.2680 ca         1 TPI      -0.195600
     14 C8          -0.6330    -0.3420     0.9850 ca         1 TPI      -0.143000
     15 C9          -0.9250    -0.7100    -0.2980 ca         1 TPI      -0.116000
     16 C10         -0.0800    -0.3420    -1.3710 ca         1 TPI      -0.017000
     17 C11          1.0660     0.4440    -1.0940 ca         1 TPI      -0.068000
     18 C12          0.8910     0.8410     2.6530 c          1 TPI       0.680700
     19 O4           1.5900     1.8200     2.8700 o          1 TPI      -0.634100
     20 N1           0.4270     0.0640     3.6520 ns         1 TPI      -0.576900
     21 C13          0.6760     0.3770     5.0390 c3         1 TPI       0.023700
     22 C14          2.1220     0.1260     5.4680 c          1 TPI       0.669100
     23 N2           2.7950    -0.7990     4.7750 nt         1 TPI      -0.670000
     24 O5           2.5850     0.7170     6.4330 o          1 TPI      -0.643100
     25 C15         -0.2720    -0.4220     5.9390 c3         1 TPI      -0.059400
     26 C16         -1.7300    -0.0450     5.7340 c3         1 TPI      -0.211400
     27 C17         -2.7270    -0.7490     6.6740 c          1 TPI       0.928600
     28 O6          -2.2700    -1.5350     7.5250 o          1 TPI      -0.852300
     29 O7          -3.9290    -0.4610     6.4980 o          1 TPI      -0.852300
     30 H41          2.2780     0.7240    -4.2530 ha         1 TPI       0.163000
     31 H51          2.7770     1.4310    -1.9660 ha         1 TPI       0.104000
     32 H61          2.2150     1.4240     0.4400 ha         1 TPI       0.128000
     33 H81         -1.3170    -0.6260     1.7750 ha         1 TPI       0.118000
     34 H91         -1.8150    -1.2930    -0.5050 ha         1 TPI       0.126000
     35 HN11        -0.0620    -0.7910     3.4380 hn         1 TPI       0.325500
     36 H131         0.4930     1.4430     5.1990 h1         1 TPI       0.089700
     37 HN21         3.7390    -1.0380     5.0310 hn         1 TPI       0.304000
     38 HN22         2.3970    -1.2680     3.9800 hn         1 TPI       0.304000
     39 H151        -0.1190    -1.4920     5.7660 hc         1 TPI       0.049200
     40 H152         0.0110    -0.2330     6.9740 hc         1 TPI       0.049200
     41 H161        -1.8460     1.0370     5.8620 hc         1 TPI       0.027700
     42 H162        -2.0430    -0.2430     4.7040 hc         1 TPI       0.027700
     43 H21         -1.2200    -1.3460    -2.8890 ha         1 TPI       0.148000
@<TRIPOS>BOND
     1     1     2 1   
     2     1     3 1   
     3     1     4 1   
     4     1     5 1   
     5     5     6 1   
     6     5     7 1   
     7     5     9 1   
     8     8     9 ar  
     9     8    16 ar  
    10     8    43 1   
    11     9    10 ar  
    12    10    11 ar  
    13    10    30 1   
    14    11    17 ar  
    15    11    31 1   
    16    12    13 ar  
    17    12    17 ar  
    18    12    32 1   
    19    13    14 ar  
    20    13    18 1   
    21    14    15 ar  
    22    14    33 1   
    23    15    16 ar  
    24    15    34 1   
    25    16    17 ar  
    26    18    19 2   
    27    18    20 1   
    28    20    21 1   
    29    20    35 1   
    30    21    22 1   
    31    21    25 1   
    32    21    36 1   
    33    22    23 1   
    34    22    24 2   
    35    23    37 1   
    36    23    38 1   
    37    25    26 1   
    38    25    39 1   
    39    25    40 1   
    40    26    27 1   
    41    26    41 1   
    42    26    42 1   
    43    27    28 1   
    44    27    29 1   
@<TRIPOS>SUBSTRUCTURE
     1 TPI         1 TEMP              0 ****  ****    0 ROOT
