@<TRIPOS>MOLECULE
TPI
   43    44     1     0     0
SMALL
No Charge or Current Charge


@<TRIPOS>ATOM
      1 P           -1.3470     0.0320    -5.9220 p5         1 TPI       1.263500
      2 O1          -2.4090    -0.6730    -5.1420 o          1 TPI      -0.899833
      3 O2          -1.5530     1.5090    -5.8180 o          1 TPI      -0.899833
      4 O3          -1.4430    -0.3750    -7.3580 o          1 TPI      -0.899833
      5 C1           0.3630    -0.4260    -5.2380 c3         1 TPI      -0.047700
      6 F1           1.3070     0.1860    -6.0020 f          1 TPI      -0.159000
      7 F2           0.5580    -1.7580    -5.4280 f          1 TPI      -0.159000
      8 C2           0.3090    -0.9880    -2.7340 ca         1 TPI      -0.103000
      9 C3           0.5330    -0.0430    -3.7610 ca         1 TPI      -0.032300
     10 C4           0.9120     1.2690    -3.4060 ca         1 TPI      -0.036000
     11 C5           1.0760     1.6280    -2.0570 ca         1 TPI      -0.149000
     12 C6           1.0270     1.0360     0.3110 ca         1 TPI      -0.037000
     13 C7           0.8120     0.0930     1.3430 ca         1 TPI      -0.195600
     14 C8           0.4220    -1.2220     0.9840 ca         1 TPI      -0.125000
     15 C9           0.2550    -1.5760    -0.3660 ca         1 TPI      -0.098000
     16 C10          0.4740    -0.6310    -1.3820 ca         1 TPI      -0.017000
     17 C11          0.8600     0.6800    -1.0410 ca         1 TPI      -0.068000
     18 C12          1.0070     0.5160     2.7850 c          1 TPI       0.613700
     19 O4           1.3530     1.6490     3.0920 o          1 TPI      -0.634100
     20 N1           0.7860    -0.4520     3.7410 ns         1 TPI      -0.509900
     21 C13          0.8440    -0.2400     5.2110 c3         1 TPI       0.023700
     22 C14          1.7270    -1.3280     5.9030 c          1 TPI       0.602100
     23 N2           2.7610    -1.8150     5.1790 nt         1 TPI      -0.603000
     24 O5           1.5150    -1.7780     7.0190 o          1 TPI      -0.643100
     25 C15         -0.5700    -0.1070     5.8410 c3         1 TPI      -0.059400
     26 C16         -1.4400     1.0310     5.2430 c3         1 TPI      -0.211400
     27 C17         -2.7630     1.1520     6.0180 c          1 TPI       0.718000
     28 O6          -2.7920     1.8800     6.9990 o          1 TPI      -0.747000
     29 O7          -3.7100     0.4730     5.6520 o          1 TPI      -0.747000
     30 H41          1.0790     2.0160    -4.1790 ha         1 TPI       0.145000
     31 H51          1.3710     2.6440    -1.8050 ha         1 TPI       0.086000
     32 H61          1.3250     2.0520     0.5570 ha         1 TPI       0.110000
     33 H81          0.2440    -1.9850     1.7370 ha         1 TPI       0.100000
     34 H91         -0.0440    -2.5910    -0.6200 ha         1 TPI       0.108000
     35 HN11         0.4920    -1.3580     3.3980 hn         1 TPI       0.325500
     36 H131         1.3770     0.7010     5.3960 h1         1 TPI       0.089700
     37 HN21         3.3520    -2.5290     5.5770 hn         1 TPI       0.304000
     38 HN22         2.9350    -1.4550     4.2520 hn         1 TPI       0.304000
     39 H151        -1.1030    -1.0610     5.7340 hc         1 TPI       0.049200
     40 H152        -0.4590     0.0700     6.9180 hc         1 TPI       0.049200
     41 H161        -0.8510     1.9500     5.3530 hc         1 TPI       0.027700
     42 H162        -1.6380     0.7530     4.2010 hc         1 TPI       0.027700
     43 H21          0.0060    -2.0010    -2.9850 ha         1 TPI       0.130000
@<TRIPOS>BOND
     1     1     2 1   
     2     1     3 1   
     3     1     4 1   
     4     1     5 1   
     5     5     6 1   
     6     5     7 1   
     7     5     9 1   
     8     8     9 ar  
     9     8    16 ar  
    10     8    43 1   
    11     9    10 ar  
    12    10    11 ar  
    13    10    30 1   
    14    11    17 ar  
    15    11    31 1   
    16    12    13 ar  
    17    12    17 ar  
    18    12    32 1   
    19    13    14 ar  
    20    13    18 1   
    21    14    15 ar  
    22    14    33 1   
    23    15    16 ar  
    24    15    34 1   
    25    16    17 ar  
    26    18    19 2   
    27    18    20 1   
    28    20    21 1   
    29    20    35 1   
    30    21    22 1   
    31    21    25 1   
    32    21    36 1   
    33    22    23 1   
    34    22    24 2   
    35    23    37 1   
    36    23    38 1   
    37    25    26 1   
    38    25    39 1   
    39    25    40 1   
    40    26    27 1   
    41    26    41 1   
    42    26    42 1   
    43    27    28 1   
    44    27    29 1   
@<TRIPOS>SUBSTRUCTURE
     1 TPI         1 TEMP              0 ****  ****    0 ROOT
