@<TRIPOS>MOLECULE
TPK
   22    22     1     0     0
SMALL
bcc


@<TRIPOS>ATOM
      1 C           36.7170    38.9350    82.0770 c3         1 TPK       0.164100
      2 O           35.8550    37.8150    82.0470 oh         1 TPK      -0.596800
      3 C3          36.5670    39.5320    83.4660 c3         1 TPK       0.142400
      4 O4          37.3550    40.6990    83.5460 oh         1 TPK      -0.608800
      5 CA          38.1690    38.5890    81.7340 c5         1 TPK       0.130500
      6 CB          38.3120    37.8790    80.3750 c5         1 TPK      -0.114400
      7 CG          38.3080    36.3810    80.7110 c5         1 TPK      -0.106400
      8 CD          38.5640    36.3200    82.2350 c5         1 TPK       0.145800
      9 N           38.7750    37.6880    82.7090 n7         1 TPK      -0.778200
     10 H1          36.3870    39.6880    81.3450 h1         1 TPK       0.032700
     11 HO          35.6960    37.5690    81.1310 ho         1 TPK       0.403000
     12 H3          35.5050    39.7550    83.6400 h1         1 TPK       0.039200
     13 H3A         36.8710    38.7850    84.2080 h1         1 TPK       0.039200
     14 HO4         37.3630    40.9940    84.4600 ho         1 TPK       0.408000
     15 HA          38.7220    39.5310    81.7340 h1         1 TPK       0.073700
     16 HB2         37.5380    38.1580    79.6550 hc         1 TPK       0.044700
     17 HB3         39.2660    38.1620    79.9270 hc         1 TPK       0.044700
     18 HG2         37.3560    35.9130    80.4580 hc         1 TPK       0.044200
     19 HG3         39.0770    35.8480    80.1510 hc         1 TPK       0.044200
     20 HD2         37.7080    35.8730    82.7430 h1         1 TPK       0.051700
     21 HD3         39.4320    35.7070    82.4830 h1         1 TPK       0.051700
     22 H           39.7690    37.8730    82.7310 hn         1 TPK       0.344800
@<TRIPOS>BOND
     1     1     2 1   
     2     1     3 1   
     3     1     5 1   
     4     1    10 1   
     5     2    11 1   
     6     3     4 1   
     7     3    12 1   
     8     3    13 1   
     9     4    14 1   
    10     5     6 1   
    11     5     9 1   
    12     5    15 1   
    13     6     7 1   
    14     6    16 1   
    15     6    17 1   
    16     7     8 1   
    17     7    18 1   
    18     7    19 1   
    19     8     9 1   
    20     8    20 1   
    21     8    21 1   
    22     9    22 1   
@<TRIPOS>SUBSTRUCTURE
     1 TPK         1 TEMP              0 ****  ****    0 ROOT
