@<TRIPOS>MOLECULE
TPK
   22    22     1     0     0
SMALL
No Charge or Current Charge


@<TRIPOS>ATOM
      1 C           36.6560    39.0190    82.1840 c3         1 TPK       0.187300
      2 O           35.7200    37.9440    82.3150 oh         1 TPK      -0.659000
      3 C3          36.6510    39.8680    83.4890 c3         1 TPK       0.165600
      4 O4          37.5300    41.0040    83.3800 oh         1 TPK      -0.671000
      5 CA          38.0330    38.3520    81.8650 c5         1 TPK       0.130500
      6 CB          38.2000    37.9170    80.3680 c5         1 TPK      -0.114400
      7 CG          38.1220    36.3700    80.4240 c5         1 TPK      -0.106400
      8 CD          38.8640    36.1180    81.7480 c5         1 TPK       0.145800
      9 N           38.1900    37.0760    82.6450 n7         1 TPK      -0.833400
     10 H1          36.3710    39.6760    81.3510 h1         1 TPK       0.032700
     11 HO          36.3420    37.1860    82.4710 ho         1 TPK       0.442000
     12 H3          35.6240    40.2080    83.6830 h1         1 TPK       0.039200
     13 H3A         36.9540    39.2330    84.3320 h1         1 TPK       0.039200
     14 HO4         37.4640    41.5000    84.2270 ho         1 TPK       0.447000
     15 HA          38.8320    39.0660    82.1160 h1         1 TPK       0.073700
     16 HB2         37.4390    38.3460    79.7070 hc         1 TPK       0.044700
     17 HB3         39.1730    38.2430    79.9820 hc         1 TPK       0.044700
     18 HG2         37.0860    36.0120    80.4650 hc         1 TPK       0.044200
     19 HG3         38.6090    35.8900    79.5680 hc         1 TPK       0.044200
     20 HD2         38.7630    35.0820    82.0990 h1         1 TPK       0.051700
     21 HD3         39.9350    36.3490    81.6540 h1         1 TPK       0.051700
     22 H           38.7530    37.2320    83.4920 hn         1 TPK       0.400000
@<TRIPOS>BOND
     1     1     2 1   
     2     1     3 1   
     3     1     5 1   
     4     1    10 1   
     5     2    11 1   
     6     3     4 1   
     7     3    12 1   
     8     3    13 1   
     9     4    14 1   
    10     5     6 1   
    11     5     9 1   
    12     5    15 1   
    13     6     7 1   
    14     6    16 1   
    15     6    17 1   
    16     7     8 1   
    17     7    18 1   
    18     7    19 1   
    19     8     9 1   
    20     8    20 1   
    21     8    21 1   
    22     9    22 1   
@<TRIPOS>SUBSTRUCTURE
     1 TPK         1 TEMP              0 ****  ****    0 ROOT
