@<TRIPOS>MOLECULE
TPL
   28    29     1     0     0
SMALL
bcc


@<TRIPOS>ATOM
      1 N            0.8080     1.1130     2.4450 n8         1 TPL      -0.861800
      2 CA          -0.1920     0.0830     2.2250 c3         1 TPL       0.157500
      3 CB1          0.3010    -1.0960     1.3630 c3         1 TPL      -0.043200
      4 CG           0.7410    -0.6720     0.0030 cc         1 TPL      -0.146400
      5 CD1          2.0230    -0.5280    -0.4480 cd         1 TPL      -0.112100
      6 CD2         -0.1050    -0.2770    -1.0860 ca         1 TPL      -0.095800
      7 CE3         -1.4930    -0.2030    -1.2550 ca         1 TPL      -0.077000
      8 CE2          0.7370     0.0840    -2.1610 ca         1 TPL      -0.045200
      9 NE1          2.0240    -0.0790    -1.7410 na         1 TPL      -0.173400
     10 CZ3         -1.9980     0.2190    -2.4700 ca         1 TPL      -0.158000
     11 CZ2          0.2320     0.5100    -3.3890 ca         1 TPL      -0.148000
     12 CH2         -1.1420     0.5730    -3.5260 ca         1 TPL      -0.107000
     13 C           -0.7040    -0.4490     3.5520 c3         1 TPL       0.147400
     14 OXT         -1.2960     0.5910     4.2930 oh         1 TPL      -0.575800
     15 H            1.1390     1.4540     1.5500 hn         1 TPL       0.334800
     16 H2           1.6190     0.7030     2.8960 hn         1 TPL       0.334800
     17 HA          -1.0340     0.5510     1.7020 h1         1 TPL       0.077700
     18 HB1          1.1280    -1.5930     1.8800 hc         1 TPL       0.046200
     19 HB2         -0.4990    -1.8390     1.2750 hc         1 TPL       0.046200
     20 HD1          2.9520    -0.7230     0.0640 h4         1 TPL       0.160000
     21 HE3         -2.1640    -0.4710    -0.4480 ha         1 TPL       0.133000
     22 HE1          2.8480     0.0950    -2.2900 hn         1 TPL       0.300700
     23 HZ3         -3.0690     0.2820    -2.6150 ha         1 TPL       0.130000
     24 HZ2          0.8890     0.7820    -4.2050 ha         1 TPL       0.131000
     25 HH2         -1.5660     0.9020    -4.4660 ha         1 TPL       0.128000
     26 HC1         -1.4220    -1.2550     3.3500 h1         1 TPL       0.010700
     27 HC2          0.1360    -0.9060     4.0980 h1         1 TPL       0.010700
     28 HXT         -1.6490     0.2140     5.1040 ho         1 TPL       0.396000
@<TRIPOS>BOND
     1     1     2 1   
     2     1    15 1   
     3     1    16 1   
     4     2     3 1   
     5     2    13 1   
     6     2    17 1   
     7     3     4 1   
     8     3    18 1   
     9     3    19 1   
    10     4     5 2   
    11     4     6 1   
    12     5     9 1   
    13     5    20 1   
    14     6     7 ar  
    15     6     8 ar  
    16     7    10 ar  
    17     7    21 1   
    18     8     9 1   
    19     8    11 ar  
    20     9    22 1   
    21    10    12 ar  
    22    10    23 1   
    23    11    12 ar  
    24    11    24 1   
    25    12    25 1   
    26    13    14 1   
    27    13    26 1   
    28    13    27 1   
    29    14    28 1   
@<TRIPOS>SUBSTRUCTURE
     1 TPL         1 TEMP              0 ****  ****    0 ROOT
