@<TRIPOS>MOLECULE
TPL
   28    29     1     0     0
SMALL
No Charge or Current Charge


@<TRIPOS>ATOM
      1 N            0.7960     1.1320     2.3890 n8         1 TPL      -0.861800
      2 CA          -0.2300     0.0710     2.2190 c3         1 TPL       0.157500
      3 CB1          0.3410    -1.0800     1.3530 c3         1 TPL      -0.043200
      4 CG           0.7880    -0.6460    -0.0210 cc         1 TPL      -0.146400
      5 CD1          2.0950    -0.5420    -0.4910 cd         1 TPL      -0.112100
      6 CD2         -0.0550    -0.2500    -1.1150 ca         1 TPL      -0.095800
      7 CE3         -1.4530    -0.1800    -1.2060 ca         1 TPL      -0.077000
      8 CE2          0.7540     0.0750    -2.1680 ca         1 TPL      -0.045200
      9 NE1          2.0850    -0.0880    -1.8310 na         1 TPL      -0.173400
     10 CZ3         -2.0140     0.2480    -2.4290 ca         1 TPL      -0.158000
     11 CZ2          0.2250     0.5020    -3.3940 ca         1 TPL      -0.148000
     12 CH2         -1.1780     0.5890    -3.5190 ca         1 TPL      -0.107000
     13 C           -0.7800    -0.4530     3.5830 c3         1 TPL       0.147400
     14 OXT         -1.4370     0.5880     4.3220 oh         1 TPL      -0.575800
     15 H            1.2300     1.2980     1.4760 hn         1 TPL       0.334800
     16 H2           1.5570     0.7660     2.9670 hn         1 TPL       0.334800
     17 HA          -1.0740     0.5090     1.6670 h1         1 TPL       0.077700
     18 HB1          1.1780    -1.5520     1.8840 hc         1 TPL       0.046200
     19 HB2         -0.4260    -1.8570     1.2470 hc         1 TPL       0.046200
     20 HD1          3.0240    -0.7530     0.0280 h4         1 TPL       0.160000
     21 HE3         -2.0870    -0.4490    -0.3650 ha         1 TPL       0.133000
     22 HE1          2.8900     0.0800    -2.4240 hn         1 TPL       0.300700
     23 HZ3         -3.0950     0.3140    -2.5330 ha         1 TPL       0.130000
     24 HZ2          0.8760     0.7590    -4.2260 ha         1 TPL       0.131000
     25 HH2         -1.6190     0.9180    -4.4580 ha         1 TPL       0.128000
     26 HC1         -1.4890    -1.2690     3.3900 h1         1 TPL       0.010700
     27 HC2          0.0490    -0.8690     4.1720 h1         1 TPL       0.010700
     28 HXT         -1.7060     0.2020     5.1820 ho         1 TPL       0.396000
@<TRIPOS>BOND
     1     1     2 1   
     2     1    15 1   
     3     1    16 1   
     4     2     3 1   
     5     2    13 1   
     6     2    17 1   
     7     3     4 1   
     8     3    18 1   
     9     3    19 1   
    10     4     5 2   
    11     4     6 1   
    12     5     9 1   
    13     5    20 1   
    14     6     7 ar  
    15     6     8 ar  
    16     7    10 ar  
    17     7    21 1   
    18     8     9 1   
    19     8    11 ar  
    20     9    22 1   
    21    10    12 ar  
    22    10    23 1   
    23    11    12 ar  
    24    11    24 1   
    25    12    25 1   
    26    13    14 1   
    27    13    26 1   
    28    13    27 1   
    29    14    28 1   
@<TRIPOS>SUBSTRUCTURE
     1 TPL         1 TEMP              0 ****  ****    0 ROOT
