@<TRIPOS>MOLECULE
TPM
   33    34     1     0     0
SMALL
abcg2


@<TRIPOS>ATOM
      1 C1           4.2100     0.2640     0.0410 ca         1 TPM       0.342000
      2 C2           3.5210    -0.2070     1.1670 ca         1 TPM      -0.184000
      3 C3           2.2060    -0.6230     1.0660 ca         1 TPM      -0.035000
      4 C5           2.2110    -0.1190    -1.2670 ca         1 TPM      -0.035000
      5 C6           3.5260     0.3000    -1.1820 ca         1 TPM      -0.184000
      6 C4           1.5270    -0.5900    -0.1490 ca         1 TPM      -0.225300
      7 C7           0.0890    -1.0000    -0.2400 c3         1 TPM       0.112900
      8 N1           5.5330     0.6250     0.1210 nv         1 TPM      -1.059000
      9 N2          -0.7780     0.1510    -0.0020 nu         1 TPM      -0.436700
     10 C8          -2.0930     0.1240     0.0130 c2         1 TPM       0.418800
     11 N3          -2.7520    -0.9850    -0.2180 nu         1 TPM      -0.415800
     12 C9          -2.8180     1.3930     0.3350 c6         1 TPM      -0.160700
     13 C10         -4.2840     1.3540    -0.0710 c6         1 TPM      -0.079400
     14 C11         -4.9010     0.0460     0.3940 c6         1 TPM      -0.104400
     15 C12         -4.2060    -1.1200    -0.2750 c6         1 TPM       0.064600
     16 HC21         4.0250    -0.2450     2.1260 ha         1 TPM       0.131000
     17 HC31         1.7000    -0.9820     1.9550 ha         1 TPM       0.113000
     18 HC51         1.7090    -0.0820    -2.2280 ha         1 TPM       0.113000
     19 HC61         4.0350     0.6550    -2.0700 ha         1 TPM       0.131000
     20 HC71        -0.1310    -1.4140    -1.2280 h1         1 TPM       0.067700
     21 HC72        -0.1330    -1.7740     0.5010 h1         1 TPM       0.067700
     22 HN11         5.8740     0.8710     1.0360 hn         1 TPM       0.469000
     23 HN12         5.8670     1.2520    -0.5920 hn         1 TPM       0.469000
     24 HN21        -0.3340     1.0360     0.1930 hn         1 TPM       0.379000
     25 HN31        -2.2310    -1.8210    -0.4440 hn         1 TPM       0.360000
     26 HC91        -2.7290     1.5400     1.4150 hc         1 TPM       0.096700
     27 HC92        -2.2920     2.2240    -0.1360 hc         1 TPM       0.096700
     28 H101        -4.3770     1.4500    -1.1560 hc         1 TPM       0.079700
     29 H102        -4.7970     2.2080     0.3710 hc         1 TPM       0.079700
     30 H111        -5.9630     0.0010     0.1500 hc         1 TPM       0.082200
     31 H112        -4.8160    -0.0400     1.4800 hc         1 TPM       0.082200
     32 H121        -4.5000    -1.1940    -1.3240 h1         1 TPM       0.081700
     33 H122        -4.4620    -2.0620     0.2060 h1         1 TPM       0.081700
@<TRIPOS>BOND
     1     1     2 ar  
     2     1     5 ar  
     3     1     8 1   
     4     2     3 ar  
     5     2    16 1   
     6     3     6 ar  
     7     3    17 1   
     8     4     5 ar  
     9     4     6 ar  
    10     4    18 1   
    11     5    19 1   
    12     6     7 1   
    13     7     9 1   
    14     7    20 1   
    15     7    21 1   
    16     8    22 1   
    17     8    23 1   
    18     9    10 2   
    19     9    24 1   
    20    10    11 1   
    21    10    12 1   
    22    11    15 1   
    23    11    25 1   
    24    12    13 1   
    25    12    26 1   
    26    12    27 1   
    27    13    14 1   
    28    13    28 1   
    29    13    29 1   
    30    14    15 1   
    31    14    30 1   
    32    14    31 1   
    33    15    32 1   
    34    15    33 1   
@<TRIPOS>SUBSTRUCTURE
     1 TPM         1 TEMP              0 ****  ****    0 ROOT
