@<TRIPOS>MOLECULE
TPM
   33    34     1     0     0
SMALL
No Charge or Current Charge


@<TRIPOS>ATOM
      1 C1           4.2680     0.2410     0.0450 ca         1 TPM       0.342000
      2 C2           3.5950    -0.2300     1.1790 ca         1 TPM      -0.184000
      3 C3           2.2500    -0.6280     1.0900 ca         1 TPM      -0.035000
      4 C5           2.2530    -0.0800    -1.2810 ca         1 TPM      -0.035000
      5 C6           3.5980     0.3160    -1.1830 ca         1 TPM      -0.184000
      6 C4           1.5730    -0.5540    -0.1420 ca         1 TPM      -0.225300
      7 C7           0.1190    -0.9810    -0.2420 c3         1 TPM       0.112900
      8 N1           5.5760     0.6280     0.1350 nv         1 TPM      -1.059000
      9 N2          -0.7410     0.1740     0.0320 nu         1 TPM      -0.436700
     10 C8          -2.1280     0.2040    -0.0250 c2         1 TPM       0.418800
     11 N3          -2.7750    -1.0190    -0.1600 nu         1 TPM      -0.415800
     12 C9          -2.8990     1.4780     0.2720 c6         1 TPM      -0.160700
     13 C10         -4.4130     1.3590    -0.0530 c6         1 TPM      -0.079400
     14 C11         -4.9650    -0.0090     0.4170 c6         1 TPM      -0.104400
     15 C12         -4.2340    -1.1700    -0.3010 c6         1 TPM       0.064600
     16 HC21         4.1110    -0.2910     2.1340 ha         1 TPM       0.131000
     17 HC31         1.7360    -0.9910     1.9790 ha         1 TPM       0.113000
     18 HC51         1.7410    -0.0160    -2.2390 ha         1 TPM       0.113000
     19 HC61         4.1160     0.6800    -2.0660 ha         1 TPM       0.131000
     20 HC71        -0.0820    -1.3710    -1.2500 h1         1 TPM       0.067700
     21 HC72        -0.0800    -1.7840     0.4810 h1         1 TPM       0.067700
     22 HN11         6.0070     0.7320     1.0520 hn         1 TPM       0.469000
     23 HN12         6.0110     1.1230    -0.6410 hn         1 TPM       0.469000
     24 HN21        -0.2770     1.0570     0.2240 hn         1 TPM       0.379000
     25 HN31        -2.1880    -1.8400    -0.2640 hn         1 TPM       0.360000
     26 HC91        -2.7720     1.7150     1.3370 hc         1 TPM       0.096700
     27 HC92        -2.4620     2.3160    -0.2870 hc         1 TPM       0.096700
     28 H101        -4.5700     1.4650    -1.1370 hc         1 TPM       0.079700
     29 H102        -4.9680     2.1810     0.4220 hc         1 TPM       0.079700
     30 H111        -6.0440    -0.0710     0.2160 hc         1 TPM       0.082200
     31 H112        -4.8460    -0.1090     1.5060 hc         1 TPM       0.082200
     32 H121        -4.5040    -1.1520    -1.3670 h1         1 TPM       0.081700
     33 H122        -4.5670    -2.1370     0.1050 h1         1 TPM       0.081700
@<TRIPOS>BOND
     1     1     2 ar  
     2     1     5 ar  
     3     1     8 1   
     4     2     3 ar  
     5     2    16 1   
     6     3     6 ar  
     7     3    17 1   
     8     4     5 ar  
     9     4     6 ar  
    10     4    18 1   
    11     5    19 1   
    12     6     7 1   
    13     7     9 1   
    14     7    20 1   
    15     7    21 1   
    16     8    22 1   
    17     8    23 1   
    18     9    10 2   
    19     9    24 1   
    20    10    11 1   
    21    10    12 1   
    22    11    15 1   
    23    11    25 1   
    24    12    13 1   
    25    12    26 1   
    26    12    27 1   
    27    13    14 1   
    28    13    28 1   
    29    13    29 1   
    30    14    15 1   
    31    14    30 1   
    32    14    31 1   
    33    15    32 1   
    34    15    33 1   
@<TRIPOS>SUBSTRUCTURE
     1 TPM         1 TEMP              0 ****  ****    0 ROOT
