@<TRIPOS>MOLECULE
TPN
   36    36     1     0     0
SMALL
abcg2


@<TRIPOS>ATOM
      1 C8           0.0470     0.6600     0.7680 c3         1 TPN       0.027000
      2 C7          -0.8080    -0.3140    -0.0360 c          1 TPN       0.604100
      3 O7          -0.2770    -1.1140    -0.7910 o          1 TPN      -0.638100
      4 C5          -2.7870     0.8080     0.8990 c3         1 TPN      -0.081000
      5 C           -2.9330     2.1440     0.1310 c          1 TPN       0.699000
      6 O1          -2.3380     2.2400    -0.9550 o          1 TPN      -0.698000
      7 OXT         -3.6260     3.0000     0.7090 o          1 TPN      -0.698000
      8 N4          -2.1390    -0.2410     0.1380 n          1 TPN      -0.357800
      9 C3          -2.9840    -1.0370    -0.7250 c3         1 TPN       0.085000
     10 C2          -3.2710    -2.3830    -0.0770 c3         1 TPN       0.067600
     11 N1          -4.1550    -3.2000    -0.9460 nz         1 TPN      -0.967000
     12 N2           1.4470     0.3870     0.5520 n          1 TPN      -0.285000
     13 C6           2.1250     1.0400    -0.4390 cc         1 TPN       0.010600
     14 C9           2.0050    -0.6740     1.2200 c          1 TPN       0.622000
     15 O2           1.4040    -1.3190     2.0540 o          1 TPN      -0.576000
     16 N3           3.3070    -0.9350     0.8800 ns         1 TPN      -0.465500
     17 C4           4.0750    -0.3000    -0.0810 c          1 TPN       0.590200
     18 O4           5.2230    -0.6500    -0.2850 o          1 TPN      -0.537000
     19 C1           3.3960     0.7680    -0.7860 cd         1 TPN      -0.271400
     20 C5M          4.1260     1.5070    -1.8590 c3         1 TPN      -0.016900
     21 H8'1        -0.1590     1.6810     0.4470 h1         1 TPN       0.110200
     22 H8'2        -0.1760     0.6090     1.8330 h1         1 TPN       0.110200
     23 H5'1        -2.2550     0.9890     1.8350 h1         1 TPN       0.043200
     24 H5'2        -3.7720     0.4480     1.1990 h1         1 TPN       0.043200
     25 H3'1        -3.9160    -0.4960    -0.8960 h1         1 TPN       0.077700
     26 H3'2        -2.5110    -1.1790    -1.6970 h1         1 TPN       0.077700
     27 H2'1        -2.3570    -2.9530     0.0720 hx         1 TPN       0.108700
     28 H2'2        -3.7780    -2.2700     0.8780 hx         1 TPN       0.108700
     29 H1'1        -5.0460    -2.7400    -1.1300 hn         1 TPN       0.503667
     30 H1'2        -3.7260    -3.4000    -1.8490 hn         1 TPN       0.503667
     31 H1'3        -4.3700    -4.0990    -0.5170 hn         1 TPN       0.503667
     32 H6           1.5670     1.8260    -0.9300 h4         1 TPN       0.222000
     33 HN3          3.7430    -1.6990     1.3810 hn         1 TPN       0.337500
     34 HM51         5.0210     1.9950    -1.4700 hc         1 TPN       0.045700
     35 HM52         4.4450     0.8370    -2.6580 hc         1 TPN       0.045700
     36 HM53         3.4920     2.2750    -2.2990 hc         1 TPN       0.045700
@<TRIPOS>BOND
     1     1     2 1   
     2     1    12 1   
     3     1    21 1   
     4     1    22 1   
     5     2     3 2   
     6     2     8 1   
     7     4     5 1   
     8     4     8 1   
     9     4    23 1   
    10     4    24 1   
    11     5     6 1   
    12     5     7 1   
    13     8     9 1   
    14     9    10 1   
    15     9    25 1   
    16     9    26 1   
    17    10    11 1   
    18    10    27 1   
    19    10    28 1   
    20    11    29 1   
    21    11    30 1   
    22    11    31 1   
    23    12    13 1   
    24    12    14 1   
    25    13    19 2   
    26    13    32 1   
    27    14    15 2   
    28    14    16 1   
    29    16    17 1   
    30    16    33 1   
    31    17    18 2   
    32    17    19 1   
    33    19    20 1   
    34    20    34 1   
    35    20    35 1   
    36    20    36 1   
@<TRIPOS>SUBSTRUCTURE
     1 TPN         1 TEMP              0 ****  ****    0 ROOT
