@<TRIPOS>MOLECULE
TPN
   36    36     1     0     0
SMALL
No Charge or Current Charge


@<TRIPOS>ATOM
      1 C8           0.1450     0.5230     0.6130 c3         1 TPN       0.027000
      2 C7          -0.8020    -0.3830    -0.2090 c          1 TPN       0.604100
      3 O7          -0.3580    -1.2050    -1.0050 o          1 TPN      -0.638100
      4 C5          -2.8150     0.7910     0.8560 c3         1 TPN      -0.081000
      5 C           -3.1600     2.1080     0.1220 c          1 TPN       0.699000
      6 O1          -2.2550     2.9010    -0.0890 o          1 TPN      -0.698000
      7 OXT         -4.3140     2.2800    -0.2420 o          1 TPN      -0.698000
      8 N4          -2.2050    -0.2650    -0.0110 n          1 TPN      -0.357800
      9 C3          -3.1490    -1.1220    -0.7690 c3         1 TPN       0.085000
     10 C2          -3.5790    -2.3670     0.0310 c3         1 TPN       0.067600
     11 N1          -4.5650    -3.2370    -0.7240 nz         1 TPN      -0.967000
     12 N2           1.6020     0.3030     0.3710 n          1 TPN      -0.285000
     13 C6           2.3030     1.1140    -0.5230 cc         1 TPN       0.010600
     14 C9           2.2380    -0.7580     1.0480 c          1 TPN       0.622000
     15 O2           1.6630    -1.4910     1.8360 o          1 TPN      -0.576000
     16 N3           3.5590    -0.9270     0.7810 ns         1 TPN      -0.465500
     17 C4           4.3500    -0.2090    -0.0580 c          1 TPN       0.590200
     18 O4           5.5320    -0.4780    -0.1990 o          1 TPN      -0.537000
     19 C1           3.6450     0.8960    -0.7560 cd         1 TPN      -0.271400
     20 C5M          4.4740     1.7300    -1.7070 c3         1 TPN      -0.016900
     21 H8'1        -0.1120     1.5630     0.3880 h1         1 TPN       0.110200
     22 H8'2        -0.0770     0.3560     1.6740 h1         1 TPN       0.110200
     23 H5'1        -2.1600     1.0280     1.7020 h1         1 TPN       0.043200
     24 H5'2        -3.7450     0.3960     1.2860 h1         1 TPN       0.043200
     25 H3'1        -4.0420    -0.5330    -1.0160 h1         1 TPN       0.077700
     26 H3'2        -2.7000    -1.4340    -1.7200 h1         1 TPN       0.077700
     27 H2'1        -2.6870    -2.9580     0.2700 hx         1 TPN       0.108700
     28 H2'2        -4.0330    -2.0430     0.9740 hx         1 TPN       0.108700
     29 H1'1        -5.4440    -2.7500    -0.9630 hn         1 TPN       0.503667
     30 H1'2        -4.1940    -3.6000    -1.6160 hn         1 TPN       0.503667
     31 H1'3        -4.8550    -4.0730    -0.1910 hn         1 TPN       0.503667
     32 H6           1.6960     1.8880    -0.9850 h4         1 TPN       0.222000
     33 HN3          4.0090    -1.6850     1.2690 hn         1 TPN       0.337500
     34 HM51         5.3070     2.2160    -1.1850 hc         1 TPN       0.045700
     35 HM52         4.8940     1.1140    -2.5110 hc         1 TPN       0.045700
     36 HM53         3.8750     2.5200    -2.1760 hc         1 TPN       0.045700
@<TRIPOS>BOND
     1     1     2 1   
     2     1    12 1   
     3     1    21 1   
     4     1    22 1   
     5     2     3 2   
     6     2     8 1   
     7     4     5 1   
     8     4     8 1   
     9     4    23 1   
    10     4    24 1   
    11     5     6 1   
    12     5     7 1   
    13     8     9 1   
    14     9    10 1   
    15     9    25 1   
    16     9    26 1   
    17    10    11 1   
    18    10    27 1   
    19    10    28 1   
    20    11    29 1   
    21    11    30 1   
    22    11    31 1   
    23    12    13 1   
    24    12    14 1   
    25    13    19 2   
    26    13    32 1   
    27    14    15 2   
    28    14    16 1   
    29    16    17 1   
    30    16    33 1   
    31    17    18 2   
    32    17    19 1   
    33    19    20 1   
    34    20    34 1   
    35    20    35 1   
    36    20    36 1   
@<TRIPOS>SUBSTRUCTURE
     1 TPN         1 TEMP              0 ****  ****    0 ROOT
