@<TRIPOS>MOLECULE
TPN
   36    36     1     0     0
SMALL
bcc


@<TRIPOS>ATOM
      1 N8           0.0470     0.6600     0.7680 c3         1 TPN      -0.187700
      2 N7          -0.8080    -0.3140    -0.0360 c          1 TPN       0.466200
      3 N7          -0.2770    -1.1140    -0.7910 o          1 TPN      -0.399000
      4 N5          -2.7870     0.8080     0.8990 c3         1 TPN      -0.295700
      5 N           -2.9330     2.1440     0.1310 c          1 TPN       0.447500
      6 N1          -2.3380     2.2400    -0.9550 o          1 TPN      -0.538000
      7 NXT         -3.6260     3.0000     0.7090 o          1 TPN      -0.538000
      8 N4          -2.1390    -0.2410     0.1380 n3         1 TPN      -0.255300
      9 N3          -2.9840    -1.0370    -0.7250 c3         1 TPN      -0.061200
     10 N2          -3.2710    -2.3830    -0.0770 c3         1 TPN      -0.141000
     11 N1          -4.1550    -3.2000    -0.9460 nz         1 TPN      -0.057000
     12 N2           1.4470     0.3870     0.5520 na         1 TPN      -0.280200
     13 N6           2.1250     1.0400    -0.4390 cc         1 TPN       0.090700
     14 N9           2.0050    -0.6740     1.2200 c          1 TPN       0.487400
     15 N2           1.4040    -1.3190     2.0540 o          1 TPN      -0.376000
     16 N3           3.3070    -0.9350     0.8800 na         1 TPN      -0.420900
     17 N4           4.0750    -0.3000    -0.0810 c          1 TPN       0.436400
     18 N4           5.2230    -0.6500    -0.2850 o          1 TPN      -0.337000
     19 N1           3.3960     0.7680    -0.7860 cd         1 TPN      -0.250500
     20 N5M          4.1260     1.5070    -1.8590 c3         1 TPN      -0.169200
     21 N8'1        -0.1590     1.6810     0.4470 hn         1 TPN       0.149500
     22 N8'2        -0.1760     0.6090     1.8330 hn         1 TPN       0.149500
     23 N5'1        -2.2550     0.9890     1.8350 hn         1 TPN       0.082500
     24 N5'2        -3.7720     0.4480     1.1990 hn         1 TPN       0.082500
     25 N3'1        -3.9160    -0.4960    -0.8960 hn         1 TPN       0.117000
     26 N3'2        -2.5110    -1.1790    -1.6970 hn         1 TPN       0.117000
     27 N2'1        -2.3570    -2.9530     0.0720 hn         1 TPN       0.148000
     28 N2'2        -3.7780    -2.2700     0.8780 hn         1 TPN       0.148000
     29 N1'1        -5.0460    -2.7400    -1.1300 hn         1 TPN       0.243667
     30 N1'2        -3.7260    -3.4000    -1.8490 hn         1 TPN       0.243667
     31 N1'3        -4.3700    -4.0990    -0.5170 hn         1 TPN       0.243667
     32 N6           1.5670     1.8260    -0.9300 hn         1 TPN       0.172000
     33 NN3          3.7430    -1.6990     1.3810 hn         1 TPN       0.227500
     34 NM51         5.0210     1.9950    -1.4700 hn         1 TPN       0.085000
     35 NM52         4.4450     0.8370    -2.6580 hn         1 TPN       0.085000
     36 NM53         3.4920     2.2750    -2.2990 hn         1 TPN       0.085000
@<TRIPOS>BOND
     1     1     2 1   
     2     1    12 1   
     3     1    21 1   
     4     1    22 1   
     5     2     3 2   
     6     2     8 1   
     7     4     5 1   
     8     4     8 1   
     9     4    23 1   
    10     4    24 1   
    11     5     6 1   
    12     5     7 1   
    13     8     9 1   
    14     9    10 1   
    15     9    25 1   
    16     9    26 1   
    17    10    11 1   
    18    10    27 1   
    19    10    28 1   
    20    11    29 1   
    21    11    30 1   
    22    11    31 1   
    23    12    13 1   
    24    12    14 1   
    25    13    19 2   
    26    13    32 1   
    27    14    15 2   
    28    14    16 1   
    29    16    17 1   
    30    16    33 1   
    31    17    18 2   
    32    17    19 1   
    33    19    20 1   
    34    20    34 1   
    35    20    35 1   
    36    20    36 1   
@<TRIPOS>SUBSTRUCTURE
     1 TPN         1 TEMP              0 ****  ****    0 ROOT
