@<TRIPOS>MOLECULE
TPO
   19    18     1     0     0
SMALL
No Charge or Current Charge


@<TRIPOS>ATOM
      1 N           22.3680     1.8590   -14.7640 n8         1 TPO      -0.846800
      2 CA          22.4880     2.8470   -13.6160 c3         1 TPO       0.028500
      3 CB          21.1820     3.6880   -13.4130 c3         1 TPO       0.237100
      4 CG2         21.3520     4.8490   -12.3940 c3         1 TPO      -0.095100
      5 OG1         20.7860     4.2150   -14.7050 os         1 TPO      -0.597200
      6 P           19.3610     4.9220   -14.9760 p5         1 TPO       1.290900
      7 O1P         19.1670     5.0340   -16.4470 o          1 TPO      -0.941500
      8 O2P         18.2650     4.0890   -14.4090 o          1 TPO      -0.941500
      9 O3P         19.3230     6.2890   -14.3880 o          1 TPO      -0.941500
     10 C           22.9760     2.2510   -12.2270 c          1 TPO       0.925600
     11 O           22.2020     1.5830   -11.5470 o          1 TPO      -0.882800
     12 OXT         24.1490     2.4080   -11.8970 o          1 TPO      -0.882800
     13 H           23.3040     1.5510   -15.0430 hn         1 TPO       0.301800
     14 H2          21.9990     2.3640   -15.5750 hn         1 TPO       0.301800
     15 HA          23.2620     3.5550   -13.9440 h1         1 TPO      -0.024300
     16 HB          20.4040     3.0130   -13.0300 h1         1 TPO       0.052700
     17 HG21        20.3880     5.3060   -12.1460 hc         1 TPO       0.005033
     18 HG22        21.7760     4.4880   -11.4500 hc         1 TPO       0.005033
     19 HG23        22.0220     5.6230   -12.7880 hc         1 TPO       0.005033
@<TRIPOS>BOND
     1     1     2 1   
     2     1    13 1   
     3     1    14 1   
     4     2     3 1   
     5     2    10 1   
     6     2    15 1   
     7     3     4 1   
     8     3     5 1   
     9     3    16 1   
    10     4    17 1   
    11     4    18 1   
    12     4    19 1   
    13     5     6 1   
    14     6     7 1   
    15     6     8 1   
    16     6     9 1   
    17    10    11 1   
    18    10    12 1   
@<TRIPOS>SUBSTRUCTURE
     1 TPO         1 TEMP              0 ****  ****    0 ROOT
