@<TRIPOS>MOLECULE
TPO
   19    18     1     0     0
SMALL
bcc


@<TRIPOS>ATOM
      1 N           22.0270     1.9290   -14.6070 n8         1 TPO      -0.846800
      2 CA          22.4390     2.9320   -13.6320 c3         1 TPO       0.028500
      3 CB          21.2810     3.9150   -13.4020 c3         1 TPO       0.237100
      4 CG2         21.6630     5.0000   -12.4020 c3         1 TPO      -0.095100
      5 OG1         20.9290     4.4950   -14.6340 os         1 TPO      -0.597200
      6 P           19.2700     4.6820   -15.0320 p5         1 TPO       1.290900
      7 O1P         19.3840     5.4740   -16.3290 o          1 TPO      -0.941500
      8 O2P         18.7330     3.2590   -15.1910 o          1 TPO      -0.941500
      9 O3P         18.6530     5.4430   -13.8590 o          1 TPO      -0.941500
     10 C           22.8510     2.2590   -12.3000 c          1 TPO       0.925600
     11 O           22.0320     1.4660   -11.7910 o          1 TPO      -0.882800
     12 OXT         23.9660     2.5750   -11.8320 o          1 TPO      -0.882800
     13 H           22.8310     1.3830   -14.8920 hn         1 TPO       0.301800
     14 H2          21.7070     2.4110   -15.4370 hn         1 TPO       0.301800
     15 HA          23.2970     3.5260   -13.9870 h1         1 TPO      -0.024300
     16 HB          20.4450     3.3350   -12.9870 h1         1 TPO       0.052700
     17 HG21        20.8480     5.7170   -12.3090 hc         1 TPO       0.005033
     18 HG22        21.8620     4.5950   -11.4090 hc         1 TPO       0.005033
     19 HG23        22.5570     5.5380   -12.7270 hc         1 TPO       0.005033
@<TRIPOS>BOND
     1     1     2 1   
     2     1    13 1   
     3     1    14 1   
     4     2     3 1   
     5     2    10 1   
     6     2    15 1   
     7     3     4 1   
     8     3     5 1   
     9     3    16 1   
    10     4    17 1   
    11     4    18 1   
    12     4    19 1   
    13     5     6 1   
    14     6     7 1   
    15     6     8 1   
    16     6     9 1   
    17    10    11 1   
    18    10    12 1   
@<TRIPOS>SUBSTRUCTURE
     1 TPO         1 TEMP              0 ****  ****    0 ROOT
