@<TRIPOS>MOLECULE
TPR
   32    33     1     0     0
SMALL
abcg2


@<TRIPOS>ATOM
      1 C1           0.6020     0.7120     3.6300 ca         1 TPR      -0.143500
      2 C2           0.1300    -0.5280     4.0490 ca         1 TPR      -0.049300
      3 C3          -0.5450    -1.3280     3.1240 ca         1 TPR      -0.143500
      4 C4          -0.7430    -0.9040     1.8230 ca         1 TPR      -0.010500
      5 C5          -0.2660     0.3420     1.4300 ca         1 TPR      -0.271500
      6 C6           0.4070     1.1540     2.3280 ca         1 TPR      -0.010500
      7 C7           0.3160    -0.9890     5.4630 c3         1 TPR      -0.047800
      8 S8          -0.5280     0.8650    -0.2480 sy         1 TPR       1.216600
      9 O9          -1.8840     0.4830    -0.6230 o          1 TPR      -0.540500
     10 O10         -0.1360     2.2680    -0.3030 o          1 TPR      -0.540500
     11 N            0.4870    -0.1010    -1.0680 n3         1 TPR      -0.779500
     12 CD           1.9280     0.0860    -0.9680 c5         1 TPR       0.225800
     13 CG           2.4290    -1.1540    -1.6900 c5         1 TPR      -0.084400
     14 CB           1.4380    -1.2960    -2.8420 c5         1 TPR      -0.068400
     15 CA           0.0810    -0.8290    -2.2730 c5         1 TPR       0.104500
     16 C           -0.6630     0.0100    -3.3270 c          1 TPR       0.714000
     17 O           -0.5250     1.2430    -3.2760 o          1 TPR      -0.714000
     18 OXT         -1.2910    -0.6550    -4.1740 o          1 TPR      -0.714000
     19 HC1          1.1350     1.3460     4.3270 ha         1 TPR       0.102000
     20 HC3         -0.9200    -2.2980     3.4260 ha         1 TPR       0.102000
     21 HC4         -1.2680    -1.5420     1.1240 ha         1 TPR       0.135500
     22 HC6          0.7820     2.1220     2.0270 ha         1 TPR       0.135500
     23 HC71        -0.5960    -0.8350     6.0430 hc         1 TPR       0.036700
     24 HC72         0.5510    -2.0520     5.5100 hc         1 TPR       0.036700
     25 HC73         1.1150    -0.4400     5.9600 hc         1 TPR       0.036700
     26 HCD1         2.2560     1.0010    -1.4710 h1         1 TPR       0.037200
     27 HCD2         2.2510     0.1320     0.0730 h1         1 TPR       0.037200
     28 HCG1         3.4600    -1.0480    -2.0300 hc         1 TPR       0.028200
     29 HCG2         2.3790    -2.0160    -1.0220 hc         1 TPR       0.028200
     30 HCB1         1.7470    -0.6450    -3.6630 hc         1 TPR       0.045700
     31 HCB2         1.3800    -2.3100    -3.2350 hc         1 TPR       0.045700
     32 HCA         -0.5270    -1.6900    -1.9850 h1         1 TPR       0.050700
@<TRIPOS>BOND
     1     1     2 ar  
     2     1     6 ar  
     3     1    19 1   
     4     2     3 ar  
     5     2     7 1   
     6     3     4 ar  
     7     3    20 1   
     8     4     5 ar  
     9     4    21 1   
    10     5     6 ar  
    11     5     8 1   
    12     6    22 1   
    13     7    23 1   
    14     7    24 1   
    15     7    25 1   
    16     8     9 2   
    17     8    10 2   
    18     8    11 1   
    19    11    12 1   
    20    11    15 1   
    21    12    13 1   
    22    12    26 1   
    23    12    27 1   
    24    13    14 1   
    25    13    28 1   
    26    13    29 1   
    27    14    15 1   
    28    14    30 1   
    29    14    31 1   
    30    15    16 1   
    31    15    32 1   
    32    16    17 1   
    33    16    18 1   
@<TRIPOS>SUBSTRUCTURE
     1 TPR         1 TEMP              0 ****  ****    0 ROOT
