@<TRIPOS>MOLECULE
TPR
   32    33     1     0     0
SMALL
No Charge or Current Charge


@<TRIPOS>ATOM
      1 C1           0.4060     0.8500     3.5470 ca         1 TPR      -0.143500
      2 C2           0.2290    -0.4200     4.1280 ca         1 TPR      -0.049300
      3 C3          -0.3350    -1.4570     3.3610 ca         1 TPR      -0.143500
      4 C4          -0.7170    -1.2300     2.0280 ca         1 TPR      -0.010500
      5 C5          -0.5400     0.0430     1.4500 ca         1 TPR      -0.271500
      6 C6           0.0260     1.0840     2.2140 ca         1 TPR      -0.010500
      7 C7           0.6390    -0.6680     5.5710 c3         1 TPR      -0.047800
      8 S8          -1.0190     0.3220    -0.2660 sy         1 TPR       1.216600
      9 O9          -2.2420    -0.4520    -0.5150 o          1 TPR      -0.540500
     10 O10         -0.9140     1.7490    -0.5920 o          1 TPR      -0.540500
     11 N            0.2160    -0.4880    -1.1110 n3         1 TPR      -0.779500
     12 CD           1.6250    -0.2210    -0.7890 c5         1 TPR       0.225800
     13 CG           2.3040    -1.3300    -1.6220 c5         1 TPR      -0.084400
     14 CB           1.5360    -1.2620    -2.9740 c5         1 TPR      -0.068400
     15 CA           0.1670    -0.5830    -2.6120 c5         1 TPR       0.104500
     16 C           -0.0170     0.7760    -3.4250 c          1 TPR       0.714000
     17 O            0.8980     1.5910    -3.4950 o          1 TPR      -0.714000
     18 OXT         -1.0740     0.9630    -4.0160 o          1 TPR      -0.714000
     19 HC1          0.8400     1.6590     4.1300 ha         1 TPR       0.102000
     20 HC3         -0.4770    -2.4420     3.7980 ha         1 TPR       0.102000
     21 HC4         -1.1450    -2.0450     1.4450 ha         1 TPR       0.135500
     22 HC6          0.1760     2.0720     1.7820 ha         1 TPR       0.135500
     23 HC71        -0.1910    -0.4530     6.2540 hc         1 TPR       0.036700
     24 HC72         0.9410    -1.7110     5.7280 hc         1 TPR       0.036700
     25 HC73         1.4850    -0.0340     5.8610 hc         1 TPR       0.036700
     26 HCD1         1.9360     0.7850    -1.1060 h1         1 TPR       0.037200
     27 HCD2         1.8480    -0.3310     0.2810 h1         1 TPR       0.037200
     28 HCG1         3.3810    -1.1630    -1.7400 hc         1 TPR       0.028200
     29 HCG2         2.1760    -2.3090    -1.1450 hc         1 TPR       0.028200
     30 HCB1         2.0990    -0.6940    -3.7230 hc         1 TPR       0.045700
     31 HCB2         1.3880    -2.2630    -3.3950 hc         1 TPR       0.045700
     32 HCA         -0.6630    -1.2370    -2.9140 h1         1 TPR       0.050700
@<TRIPOS>BOND
     1     1     2 ar  
     2     1     6 ar  
     3     1    19 1   
     4     2     3 ar  
     5     2     7 1   
     6     3     4 ar  
     7     3    20 1   
     8     4     5 ar  
     9     4    21 1   
    10     5     6 ar  
    11     5     8 1   
    12     6    22 1   
    13     7    23 1   
    14     7    24 1   
    15     7    25 1   
    16     8     9 2   
    17     8    10 2   
    18     8    11 1   
    19    11    12 1   
    20    11    15 1   
    21    12    13 1   
    22    12    26 1   
    23    12    27 1   
    24    13    14 1   
    25    13    28 1   
    26    13    29 1   
    27    14    15 1   
    28    14    30 1   
    29    14    31 1   
    30    15    16 1   
    31    15    32 1   
    32    16    17 1   
    33    16    18 1   
@<TRIPOS>SUBSTRUCTURE
     1 TPR         1 TEMP              0 ****  ****    0 ROOT
