@<TRIPOS>MOLECULE
TPV
   75    78     1     0     0
SMALL
No Charge or Current Charge


@<TRIPOS>ATOM
      1 O1          13.3130    21.5840     6.6400 os         1 TPV      -0.457100
      2 C2          12.1880    22.3050     6.3210 c          1 TPV       0.676300
      3 C3          12.4110    23.7140     5.8260 ce         1 TPV      -0.254400
      4 C4          13.6600    24.2330     5.8070 c2         1 TPV       0.137900
      5 C5          14.8710    23.4620     6.2790 c6         1 TPV      -0.115200
      6 C6          14.6520    21.9300     6.2460 c6         1 TPV       0.221000
      7 O7          11.0800    21.8120     6.4750 o          1 TPV      -0.504000
      8 O8          13.9550    25.4940     5.4480 oh         1 TPV      -0.517100
      9 C9          14.9160    21.2790     4.8370 c3         1 TPV      -0.094400
     10 C10         14.1140    21.8130     3.6260 c3         1 TPV      -0.077400
     11 C11         14.4260    21.0610     2.3180 c3         1 TPV      -0.089100
     12 C12         15.5520    21.2110     7.3090 c3         1 TPV      -0.080400
     13 C13         17.0870    21.3960     7.1880 c3         1 TPV      -0.026100
     14 C14         17.8260    20.7230     8.3370 ca         1 TPV      -0.087300
     15 C15         18.1270    21.4450     9.5090 ca         1 TPV      -0.104500
     16 C16         18.8040    20.8220    10.5720 ca         1 TPV      -0.106500
     17 C17         19.1840    19.4730    10.4690 ca         1 TPV      -0.106000
     18 C18         18.8850    18.7470     9.3030 ca         1 TPV      -0.106500
     19 C19         18.2070    19.3710     8.2410 ca         1 TPV      -0.104500
     20 C20         11.1280    24.4950     5.4420 c3         1 TPV       0.051800
     21 C21         11.1920    25.3560     4.1480 c3         1 TPV      -0.062400
     22 C22         11.6570    24.6000     2.8870 c3         1 TPV      -0.087100
     23 C23         10.5250    25.3110     6.5970 ca         1 TPV      -0.049300
     24 C24         11.3030    25.7950     7.6710 ca         1 TPV      -0.088000
     25 C25         10.7040    26.5240     8.7120 ca         1 TPV      -0.096000
     26 C26          9.3240    26.7870     8.6870 ca         1 TPV      -0.110000
     27 C27          8.5400    26.3320     7.6160 ca         1 TPV       0.230000
     28 N28          7.1730    26.5970     7.5940 nu         1 TPV      -0.908100
     29 C29          9.1410    25.5840     6.5890 ca         1 TPV      -0.084000
     30 S30          6.3890    27.6340     6.5070 sy         1 TPV       1.090200
     31 O31          6.9190    28.9520     6.8750 o          1 TPV      -0.526000
     32 O32          4.9800    27.2880     6.7270 o          1 TPV      -0.526000
     33 C33          6.9030    27.1570     4.7980 ca         1 TPV       0.189900
     34 N34          7.8490    27.9010     4.1490 nb         1 TPV      -0.578000
     35 C35          8.2530    27.5090     2.9200 ca         1 TPV       0.367900
     36 C36          7.7580    26.3550     2.2810 ca         1 TPV      -0.209300
     37 C37          6.7730    25.5930     2.9420 ca         1 TPV      -0.040000
     38 C38          6.3420    26.0030     4.2140 ca         1 TPV      -0.076000
     39 C39          8.2670    25.9380     0.9060 c3         1 TPV       0.349300
     40 F40          9.3800    26.6080     0.5310 f          1 TPV      -0.107333
     41 F41          7.3360    26.1550    -0.0490 f          1 TPV      -0.107333
     42 F42          8.5750    24.6220     0.8680 f          1 TPV      -0.107333
     43 H51         15.7540    23.7160     5.6770 hc         1 TPV       0.071700
     44 H52         15.0960    23.7810     7.3060 hc         1 TPV       0.071700
     45 HO81        14.9170    25.6300     5.5740 ho         1 TPV       0.467000
     46 H91         15.9760    21.3870     4.5810 hc         1 TPV       0.056200
     47 H92         14.7380    20.1990     4.9080 hc         1 TPV       0.056200
     48 H101        13.0380    21.7390     3.8190 hc         1 TPV       0.044200
     49 H102        14.3540    22.8720     3.4780 hc         1 TPV       0.044200
     50 H111        13.8440    21.4800     1.4890 hc         1 TPV       0.035367
     51 H112        15.4900    21.1430     2.0660 hc         1 TPV       0.035367
     52 H113        14.1730    19.9980     2.4120 hc         1 TPV       0.035367
     53 H121        15.2550    21.5510     8.3080 hc         1 TPV       0.067200
     54 H122        15.3400    20.1340     7.2950 hc         1 TPV       0.067200
     55 H131        17.4410    20.9820     6.2370 hc         1 TPV       0.044700
     56 H132        17.3320    22.4650     7.1680 hc         1 TPV       0.044700
     57 H151        17.8340    22.4890     9.5980 ha         1 TPV       0.109000
     58 H161        19.0340    21.3840    11.4740 ha         1 TPV       0.114500
     59 H171        19.7070    18.9900    11.2920 ha         1 TPV       0.115000
     60 H181        19.1770    17.7020     9.2230 ha         1 TPV       0.114500
     61 H191        17.9780    18.8010     7.3430 ha         1 TPV       0.109000
     62 H201        10.3660    23.7480     5.1850 hc         1 TPV       0.075700
     63 H211        10.1880    25.7420     3.9460 hc         1 TPV       0.045200
     64 H212        11.8200    26.2400     4.3020 hc         1 TPV       0.045200
     65 H221        11.5240    25.2290     1.9990 hc         1 TPV       0.033367
     66 H222        12.7180    24.3450     2.9570 hc         1 TPV       0.033367
     67 H223        11.0800    23.6790     2.7460 hc         1 TPV       0.033367
     68 H241        12.3720    25.6090     7.7140 ha         1 TPV       0.114000
     69 H251        11.3110    26.8870     9.5390 ha         1 TPV       0.118000
     70 H261         8.8710    27.3560     9.4950 ha         1 TPV       0.122000
     71 H281         6.7990    26.9080     8.4810 hn         1 TPV       0.497000
     72 H291         8.5280    25.1970     5.7820 ha         1 TPV       0.122000
     73 H351         9.0080    28.1370     2.4490 h4         1 TPV       0.043100
     74 H371         6.3550    24.6980     2.4850 ha         1 TPV       0.143000
     75 H381         5.5950    25.4220     4.7510 ha         1 TPV       0.154000
@<TRIPOS>BOND
     1     1     2 1   
     2     1     6 1   
     3     2     3 1   
     4     2     7 2   
     5     3     4 2   
     6     3    20 1   
     7     4     5 1   
     8     4     8 1   
     9     5     6 1   
    10     5    43 1   
    11     5    44 1   
    12     6     9 1   
    13     6    12 1   
    14     8    45 1   
    15     9    10 1   
    16     9    46 1   
    17     9    47 1   
    18    10    11 1   
    19    10    48 1   
    20    10    49 1   
    21    11    50 1   
    22    11    51 1   
    23    11    52 1   
    24    12    13 1   
    25    12    53 1   
    26    12    54 1   
    27    13    14 1   
    28    13    55 1   
    29    13    56 1   
    30    14    15 ar  
    31    14    19 ar  
    32    15    16 ar  
    33    15    57 1   
    34    16    17 ar  
    35    16    58 1   
    36    17    18 ar  
    37    17    59 1   
    38    18    19 ar  
    39    18    60 1   
    40    19    61 1   
    41    20    21 1   
    42    20    23 1   
    43    20    62 1   
    44    21    22 1   
    45    21    63 1   
    46    21    64 1   
    47    22    65 1   
    48    22    66 1   
    49    22    67 1   
    50    23    24 ar  
    51    23    29 ar  
    52    24    25 ar  
    53    24    68 1   
    54    25    26 ar  
    55    25    69 1   
    56    26    27 ar  
    57    26    70 1   
    58    27    28 1   
    59    27    29 ar  
    60    28    30 1   
    61    28    71 1   
    62    29    72 1   
    63    30    31 2   
    64    30    32 2   
    65    30    33 1   
    66    33    34 ar  
    67    33    38 ar  
    68    34    35 ar  
    69    35    36 ar  
    70    35    73 1   
    71    36    37 ar  
    72    36    39 1   
    73    37    38 ar  
    74    37    74 1   
    75    38    75 1   
    76    39    40 1   
    77    39    41 1   
    78    39    42 1   
@<TRIPOS>SUBSTRUCTURE
     1 TPV         1 TEMP              0 ****  ****    0 ROOT
