@<TRIPOS>MOLECULE
TPV
   75    78     1     0     0
SMALL
abcg2


@<TRIPOS>ATOM
      1 O1          13.3350    21.4410     6.6510 os         1 TPV      -0.457100
      2 C2          12.2410    22.1650     6.3390 c          1 TPV       0.676300
      3 C3          12.3790    23.4900     5.7360 ce         1 TPV      -0.254400
      4 C4          13.6150    24.0210     5.6580 c2         1 TPV       0.137900
      5 C5          14.8470    23.2990     6.0880 c6         1 TPV      -0.115200
      6 C6          14.6860    21.7820     6.2020 c6         1 TPV       0.221000
      7 O7          11.1590    21.6710     6.6200 o          1 TPV      -0.504000
      8 O8          13.7870    25.2890     5.2430 oh         1 TPV      -0.517100
      9 C9          14.9490    21.0380     4.8900 c3         1 TPV      -0.094400
     10 C10         14.1060    21.4240     3.6780 c3         1 TPV      -0.077400
     11 C11         14.4470    20.5650     2.4620 c3         1 TPV      -0.089100
     12 C12         15.5720    21.2300     7.3260 c3         1 TPV      -0.080400
     13 C13         17.0790    21.4530     7.1430 c3         1 TPV      -0.026100
     14 C14         17.8510    20.9510     8.3360 ca         1 TPV      -0.087300
     15 C15         18.0870    21.7820     9.4340 ca         1 TPV      -0.104500
     16 C16         18.7650    21.3100    10.5530 ca         1 TPV      -0.106500
     17 C17         19.2190    19.9950    10.5920 ca         1 TPV      -0.106000
     18 C18         18.9900    19.1580     9.5050 ca         1 TPV      -0.106500
     19 C19         18.3110    19.6350     8.3870 ca         1 TPV      -0.104500
     20 C20         11.0840    24.1800     5.3600 c3         1 TPV       0.051800
     21 C21         11.1190    25.0300     4.0700 c3         1 TPV      -0.062400
     22 C22         11.6580    24.2770     2.8590 c3         1 TPV      -0.087100
     23 C23         10.4810    24.9810     6.5050 ca         1 TPV      -0.049300
     24 C24         11.2290    25.4700     7.5740 ca         1 TPV      -0.088000
     25 C25         10.6270    26.2070     8.5920 ca         1 TPV      -0.096000
     26 C26          9.2670    26.4820     8.5530 ca         1 TPV      -0.110000
     27 C27          8.5140    25.9960     7.4870 ca         1 TPV       0.230000
     28 N28          7.1010    26.2530     7.3940 nu         1 TPV      -0.908100
     29 C29          9.1110    25.2490     6.4820 ca         1 TPV      -0.084000
     30 S30          6.6010    27.6580     6.6840 sy         1 TPV       1.090200
     31 O31          7.3360    28.8120     7.1380 o          1 TPV      -0.526000
     32 O32          5.1610    27.6640     6.7940 o          1 TPV      -0.526000
     33 C33          7.0540    27.3660     4.9660 ca         1 TPV       0.189900
     34 N34          8.1380    27.9940     4.5360 nb         1 TPV      -0.578000
     35 C35          8.4910    27.8120     3.2670 ca         1 TPV       0.367900
     36 C36          7.7610    27.0020     2.4010 ca         1 TPV      -0.209300
     37 C37          6.6320    26.3450     2.8700 ca         1 TPV      -0.040000
     38 C38          6.2630    26.5290     4.1950 ca         1 TPV      -0.076000
     39 C39          8.2240    26.8420     0.9800 c3         1 TPV       0.349300
     40 F40          8.6060    28.0220     0.4460 f          1 TPV      -0.107333
     41 F41          7.2680    26.3320     0.1830 f          1 TPV      -0.107333
     42 F42          9.2920    26.0160     0.8940 f          1 TPV      -0.107333
     43 H51         15.6500    23.5190     5.3800 hc         1 TPV       0.071700
     44 H52         15.1540    23.7220     7.0500 hc         1 TPV       0.071700
     45 HO81        14.7270    25.5150     5.2120 ho         1 TPV       0.467000
     46 H91         16.0030    21.1810     4.6370 hc         1 TPV       0.056200
     47 H92         14.8190    19.9710     5.0950 hc         1 TPV       0.056200
     48 H101        13.0440    21.3180     3.9060 hc         1 TPV       0.044200
     49 H102        14.2670    22.4750     3.4300 hc         1 TPV       0.044200
     50 H111        13.8440    20.8520     1.5970 hc         1 TPV       0.035367
     51 H112        15.4990    20.6720     2.1880 hc         1 TPV       0.035367
     52 H113        14.2610    19.5070     2.6650 hc         1 TPV       0.035367
     53 H121        15.2520    21.7020     8.2580 hc         1 TPV       0.067200
     54 H122        15.3730    20.1600     7.4200 hc         1 TPV       0.067200
     55 H131        17.4260    20.9360     6.2470 hc         1 TPV       0.044700
     56 H132        17.2830    22.5160     7.0040 hc         1 TPV       0.044700
     57 H151        17.7370    22.8070     9.4080 ha         1 TPV       0.109000
     58 H161        18.9420    21.9710    11.3940 ha         1 TPV       0.114500
     59 H171        19.7500    19.6270    11.4620 ha         1 TPV       0.115000
     60 H181        19.3420    18.1340     9.5240 ha         1 TPV       0.114500
     61 H191        18.1380    18.9790     7.5410 ha         1 TPV       0.109000
     62 H201        10.3800    23.3700     5.1590 hc         1 TPV       0.075700
     63 H211        10.0900    25.3390     3.8730 hc         1 TPV       0.045200
     64 H212        11.6920    25.9410     4.2340 hc         1 TPV       0.045200
     65 H221        11.5080    24.8550     1.9460 hc         1 TPV       0.033367
     66 H222        12.7240    24.0750     2.9570 hc         1 TPV       0.033367
     67 H223        11.1480    23.3180     2.7340 hc         1 TPV       0.033367
     68 H241        12.2900    25.2670     7.6250 ha         1 TPV       0.114000
     69 H251        11.2250    26.5720     9.4160 ha         1 TPV       0.118000
     70 H261         8.7900    27.0630     9.3310 ha         1 TPV       0.122000
     71 H281         6.5630    26.0840     8.2400 hn         1 TPV       0.497000
     72 H291         8.4970    24.8640     5.6780 ha         1 TPV       0.122000
     73 H351         9.3810    28.3290     2.9280 h4         1 TPV       0.043100
     74 H371         6.0470    25.7090     2.2210 ha         1 TPV       0.143000
     75 H381         5.3910    26.0430     4.6090 ha         1 TPV       0.154000
@<TRIPOS>BOND
     1     1     2 1   
     2     1     6 1   
     3     2     3 1   
     4     2     7 2   
     5     3     4 2   
     6     3    20 1   
     7     4     5 1   
     8     4     8 1   
     9     5     6 1   
    10     5    43 1   
    11     5    44 1   
    12     6     9 1   
    13     6    12 1   
    14     8    45 1   
    15     9    10 1   
    16     9    46 1   
    17     9    47 1   
    18    10    11 1   
    19    10    48 1   
    20    10    49 1   
    21    11    50 1   
    22    11    51 1   
    23    11    52 1   
    24    12    13 1   
    25    12    53 1   
    26    12    54 1   
    27    13    14 1   
    28    13    55 1   
    29    13    56 1   
    30    14    15 ar  
    31    14    19 ar  
    32    15    16 ar  
    33    15    57 1   
    34    16    17 ar  
    35    16    58 1   
    36    17    18 ar  
    37    17    59 1   
    38    18    19 ar  
    39    18    60 1   
    40    19    61 1   
    41    20    21 1   
    42    20    23 1   
    43    20    62 1   
    44    21    22 1   
    45    21    63 1   
    46    21    64 1   
    47    22    65 1   
    48    22    66 1   
    49    22    67 1   
    50    23    24 ar  
    51    23    29 ar  
    52    24    25 ar  
    53    24    68 1   
    54    25    26 ar  
    55    25    69 1   
    56    26    27 ar  
    57    26    70 1   
    58    27    28 1   
    59    27    29 ar  
    60    28    30 1   
    61    28    71 1   
    62    29    72 1   
    63    30    31 2   
    64    30    32 2   
    65    30    33 1   
    66    33    34 ar  
    67    33    38 ar  
    68    34    35 ar  
    69    35    36 ar  
    70    35    73 1   
    71    36    37 ar  
    72    36    39 1   
    73    37    38 ar  
    74    37    74 1   
    75    38    75 1   
    76    39    40 1   
    77    39    41 1   
    78    39    42 1   
@<TRIPOS>SUBSTRUCTURE
     1 TPV         1 TEMP              0 ****  ****    0 ROOT
