@<TRIPOS>MOLECULE
TPX
   39    39     1     0     0
SMALL
bcc


@<TRIPOS>ATOM
      1 C            0.4390     1.6950     3.3700 c          1 TPX       0.577900
      2 CA           0.6650     0.2450     3.0520 c3         1 TPX      -0.153700
      3 CB          -0.4100    -0.2580     2.0800 c3         1 TPX      -0.201700
      4 CC          -0.1360    -1.6910     1.5480 c          1 TPX       0.929600
      5 CD           0.6050    -0.5160     4.3890 c3         1 TPX      -0.067400
      6 CE           1.7310    -0.1580     5.3500 c3         1 TPX      -0.089100
      7 O            1.2550     2.5780     3.2650 o          1 TPX      -0.554100
      8 OA          -1.0770    -2.1930     0.8780 o          1 TPX      -0.817300
      9 OB           0.9570    -2.2220     1.7760 o          1 TPX      -0.817300
     10 CK          -0.5690     0.6970     0.8830 c3         1 TPX       0.207800
     11 N           -1.6900     0.2490     0.0610 n7         1 TPX      -0.820100
     12 OC          -2.9410     0.1410    -2.0720 o          1 TPX      -0.639300
     13 OD          -1.8350     2.2890    -1.3720 o          1 TPX      -0.639300
     14 S           -1.8200     0.8350    -1.4550 sy         1 TPX       1.286200
     15 CF          -0.3420     0.3650    -2.3140 ca         1 TPX      -0.299500
     16 CG1         -0.1690    -0.9670    -2.6740 ca         1 TPX      -0.021000
     17 CG2          0.6430     1.3040    -2.5820 ca         1 TPX      -0.021000
     18 CH1          0.9970    -1.3490    -3.3130 ca         1 TPX      -0.154000
     19 CH2          1.8050     0.9030    -3.2240 ca         1 TPX      -0.154000
     20 CI           2.0010    -0.4230    -3.6000 ca         1 TPX      -0.037300
     21 CJ           3.2470    -0.8400    -4.3220 c3         1 TPX      -0.048800
     22 H           -0.5760     1.9140     3.7600 h4         1 TPX      -0.034800
     23 HA           1.6580     0.1290     2.6110 hc         1 TPX       0.087700
     24 HB          -1.3710    -0.2730     2.6090 hc         1 TPX       0.055700
     25 HD2          0.6380    -1.5830     4.1720 hc         1 TPX       0.053200
     26 HD1         -0.3630    -0.3270     4.8640 hc         1 TPX       0.053200
     27 HE3          1.6910    -0.7900     6.2380 hc         1 TPX       0.024367
     28 HE2          2.7070    -0.3030     4.8860 hc         1 TPX       0.024367
     29 HE1          1.6780     0.8770     5.6900 hc         1 TPX       0.024367
     30 HK2         -0.7710     1.7140     1.2240 h1         1 TPX       0.034700
     31 HK1          0.3750     0.7240     0.3220 h1         1 TPX       0.034700
     32 HN1         -1.7580    -0.7860     0.1220 hn         1 TPX       0.500800
     33 HG1         -0.9320    -1.7060    -2.4690 ha         1 TPX       0.154500
     34 HG2          0.5140     2.3390    -2.2970 ha         1 TPX       0.154500
     35 HH1          1.1300    -2.3870    -3.5930 ha         1 TPX       0.124000
     36 HH2          2.5720     1.6390    -3.4310 ha         1 TPX       0.124000
     37 HJ3          3.1150    -0.7430    -5.4020 hc         1 TPX       0.038700
     38 HJ2          4.0970    -0.2180    -4.0430 hc         1 TPX       0.038700
     39 HJ1          3.5000    -1.8790    -4.1180 hc         1 TPX       0.038700
@<TRIPOS>BOND
     1     1     2 1   
     2     1     7 2   
     3     1    22 1   
     4     2     3 1   
     5     2     5 1   
     6     2    23 1   
     7     3     4 1   
     8     3    10 1   
     9     3    24 1   
    10     4     8 1   
    11     4     9 1   
    12     5     6 1   
    13     5    25 1   
    14     5    26 1   
    15     6    27 1   
    16     6    28 1   
    17     6    29 1   
    18    10    11 1   
    19    10    30 1   
    20    10    31 1   
    21    11    14 1   
    22    11    32 1   
    23    12    14 2   
    24    13    14 2   
    25    14    15 1   
    26    15    16 ar  
    27    15    17 ar  
    28    16    18 ar  
    29    16    33 1   
    30    17    19 ar  
    31    17    34 1   
    32    18    20 ar  
    33    18    35 1   
    34    19    20 ar  
    35    19    36 1   
    36    20    21 1   
    37    21    37 1   
    38    21    38 1   
    39    21    39 1   
@<TRIPOS>SUBSTRUCTURE
     1 TPX         1 TEMP              0 ****  ****    0 ROOT
