@<TRIPOS>MOLECULE
TPX
   39    39     1     0     0
SMALL
No Charge or Current Charge


@<TRIPOS>ATOM
      1 C            1.8080     0.4480     2.1790 c          1 TPX       0.577900
      2 CA           0.6980    -0.4150     2.8130 c3         1 TPX      -0.153700
      3 CB          -0.6910    -0.1730     2.1170 c3         1 TPX      -0.201700
      4 CC          -1.8120    -1.0350     2.7360 c          1 TPX       0.719000
      5 CD           0.6380    -0.1740     4.3500 c3         1 TPX      -0.067400
      6 CE           1.9680    -0.4450     5.0840 c3         1 TPX      -0.089100
      7 O            2.7850    -0.0220     1.6060 o          1 TPX      -0.554100
      8 OA          -2.7580    -0.4630     3.2540 o          1 TPX      -0.712000
      9 OB          -1.7150    -2.2510     2.6680 o          1 TPX      -0.712000
     10 CK          -0.6430    -0.4010     0.5870 c3         1 TPX       0.207800
     11 N           -1.8450     0.1520    -0.0500 n7         1 TPX      -0.875300
     12 OC          -2.4530    -1.5230    -1.7840 o          1 TPX      -0.568500
     13 OD          -2.9360     0.9770    -2.1220 o          1 TPX      -0.568500
     14 S           -2.0690    -0.1150    -1.6750 sy         1 TPX       1.144600
     15 CF          -0.4120     0.1380    -2.3290 ca         1 TPX      -0.299500
     16 CG1          0.4080    -0.9650    -2.6430 ca         1 TPX      -0.003000
     17 CG2          0.0760     1.4470    -2.5140 ca         1 TPX      -0.003000
     18 CH1          1.7070    -0.7540    -3.1380 ca         1 TPX      -0.136000
     19 CH2          1.3760     1.6490    -3.0090 ca         1 TPX      -0.136000
     20 CI           2.1990     0.5510    -3.3220 ca         1 TPX      -0.037300
     21 CJ           3.6040     0.7740    -3.8590 c3         1 TPX      -0.048800
     22 H            1.6720     1.5480     2.2690 h4         1 TPX      -0.034800
     23 HA           0.9810    -1.4620     2.6480 hc         1 TPX       0.087700
     24 HB          -0.9530     0.8810     2.2800 hc         1 TPX       0.055700
     25 HD2         -0.1280    -0.8200     4.7960 hc         1 TPX       0.053200
     26 HD1          0.3270     0.8610     4.5470 hc         1 TPX       0.053200
     27 HE3          1.8360    -0.3210     6.1650 hc         1 TPX       0.024367
     28 HE2          2.3130    -1.4690     4.8970 hc         1 TPX       0.024367
     29 HE1          2.7510     0.2510     4.7590 hc         1 TPX       0.024367
     30 HK2          0.2440     0.0990     0.1790 h1         1 TPX       0.034700
     31 HK1         -0.5400    -1.4750     0.3780 h1         1 TPX       0.034700
     32 HN1         -2.6650    -0.3410     0.3000 hn         1 TPX       0.556000
     33 HG1          0.0480    -1.9830    -2.5040 ha         1 TPX       0.136500
     34 HG2         -0.5450     2.3080    -2.2690 ha         1 TPX       0.136500
     35 HH1          2.3330    -1.6110    -3.3780 ha         1 TPX       0.106000
     36 HH2          1.7440     2.6630    -3.1480 ha         1 TPX       0.106000
     37 HJ3          3.5980     0.8320    -4.9540 hc         1 TPX       0.038700
     38 HJ2          4.0350     1.7060    -3.4750 hc         1 TPX       0.038700
     39 HJ1          4.2760    -0.0430    -3.5690 hc         1 TPX       0.038700
@<TRIPOS>BOND
     1     1     2 1   
     2     1     7 2   
     3     1    22 1   
     4     2     3 1   
     5     2     5 1   
     6     2    23 1   
     7     3     4 1   
     8     3    10 1   
     9     3    24 1   
    10     4     8 1   
    11     4     9 1   
    12     5     6 1   
    13     5    25 1   
    14     5    26 1   
    15     6    27 1   
    16     6    28 1   
    17     6    29 1   
    18    10    11 1   
    19    10    30 1   
    20    10    31 1   
    21    11    14 1   
    22    11    32 1   
    23    12    14 2   
    24    13    14 2   
    25    14    15 1   
    26    15    16 ar  
    27    15    17 ar  
    28    16    18 ar  
    29    16    33 1   
    30    17    19 ar  
    31    17    34 1   
    32    18    20 ar  
    33    18    35 1   
    34    19    20 ar  
    35    19    36 1   
    36    20    21 1   
    37    21    37 1   
    38    21    38 1   
    39    21    39 1   
@<TRIPOS>SUBSTRUCTURE
     1 TPX         1 TEMP              0 ****  ****    0 ROOT
