@<TRIPOS>MOLECULE
TPY
   38    38     1     0     0
SMALL
abcg2


@<TRIPOS>ATOM
      1 C            3.8830     0.7890     1.6660 c          1 TPY       0.575900
      2 CA           3.3790     1.0060     0.2680 c3         1 TPY      -0.153700
      3 CB           2.5940    -0.2260    -0.2000 c3         1 TPY      -0.204700
      4 CC           1.9090    -0.0380    -1.5810 c          1 TPY       0.718000
      5 CD           4.6130     1.2520    -0.6180 c3         1 TPY      -0.067400
      6 CE           5.3550     2.5400    -0.2870 c3         1 TPY      -0.089100
      7 O            3.6890     1.5160     2.6090 o          1 TPY      -0.549100
      8 OA           1.4210    -1.0910    -2.0710 o          1 TPY      -0.709500
      9 OB           1.8530     1.0910    -2.0800 o          1 TPY      -0.709500
     10 OC          -0.9460    -3.5280     0.3790 o          1 TPY      -0.558500
     11 OD          -0.4630    -2.2030     2.4660 o          1 TPY      -0.558500
     12 S           -0.5440    -2.2860     1.0170 sy         1 TPY       1.143600
     13 CK           1.5220    -0.6250     0.8290 c3         1 TPY       0.209800
     14 CF          -1.6840    -1.0210     0.4810 ca         1 TPY      -0.250500
     15 CG1         -2.0170    -0.9580    -0.8670 ca         1 TPY      -0.018500
     16 CG2         -2.1940    -0.1110     1.3930 ca         1 TPY      -0.018500
     17 CH1         -2.8800     0.0270    -1.3080 ca         1 TPY      -0.072500
     18 CH2         -3.0590     0.8790     0.9560 ca         1 TPY      -0.072500
     19 CI          -3.3890     0.9310    -0.3870 ca         1 TPY      -0.139200
     20 NJ          -4.3040     1.9710    -0.8500 no         1 TPY       0.692200
     21 OE          -4.6010     1.9800    -2.0200 o          1 TPY      -0.407500
     22 OF          -4.7130     2.7640    -0.0380 o          1 TPY      -0.407500
     23 H            4.5030    -0.1230     1.7780 h4         1 TPY      -0.034800
     24 HA           2.7340     1.8890     0.2550 hc         1 TPY       0.087700
     25 HB           3.2940    -1.0680    -0.2840 hc         1 TPY       0.056700
     26 HD2          5.2910     0.3960    -0.5300 hc         1 TPY       0.054200
     27 HD1          4.2850     1.2810    -1.6550 hc         1 TPY       0.054200
     28 HE3          5.7850     2.5290     0.7160 hc         1 TPY       0.025700
     29 HE2          4.6910     3.4040    -0.3500 hc         1 TPY       0.025700
     30 HE1          6.1750     2.7020    -0.9870 hc         1 TPY       0.025700
     31 HN1          0.9490    -1.9430    -0.6390 hn         1 TPY       0.560000
     32 HK2          0.7960     0.1940     0.9200 h1         1 TPY       0.036700
     33 HK1          1.9620    -0.7770     1.8160 h1         1 TPY       0.036700
     34 HG1         -1.6150    -1.6650    -1.5800 ha         1 TPY       0.151500
     35 HG2         -1.9310    -0.1640     2.4400 ha         1 TPY       0.151500
     36 HH1         -3.1430     0.0790    -2.3540 ha         1 TPY       0.147500
     37 HH2         -3.4610     1.5890     1.6650 ha         1 TPY       0.147500
     38 N            0.9000    -1.8770     0.3980 n7         1 TPY      -0.879300
@<TRIPOS>BOND
     1     1     2 1   
     2     1     7 2   
     3     1    23 1   
     4     2     3 1   
     5     2     5 1   
     6     2    24 1   
     7     3     4 1   
     8     3    13 1   
     9     3    25 1   
    10     4     8 1   
    11     4     9 1   
    12     5     6 1   
    13     5    26 1   
    14     5    27 1   
    15     6    28 1   
    16     6    29 1   
    17     6    30 1   
    18    10    12 2   
    19    11    12 2   
    20    12    14 1   
    21    12    38 1   
    22    13    32 1   
    23    13    33 1   
    24    13    38 1   
    25    14    15 ar  
    26    14    16 ar  
    27    15    17 ar  
    28    15    34 1   
    29    16    18 ar  
    30    16    35 1   
    31    17    19 ar  
    32    17    36 1   
    33    18    19 ar  
    34    18    37 1   
    35    19    20 1   
    36    20    21 1   
    37    20    22 1   
    38    31    38 1   
@<TRIPOS>SUBSTRUCTURE
     1 TPY         1 TEMP              0 ****  ****    0 ROOT
