@<TRIPOS>MOLECULE
TPY
   38    38     1     0     0
SMALL
No Charge or Current Charge


@<TRIPOS>ATOM
      1 C            2.3050     1.9610     0.4920 c          1 TPY       0.575900
      2 CA           3.1150     1.0230    -0.4260 c3         1 TPY      -0.153700
      3 CB           2.7260    -0.4840    -0.1990 c3         1 TPY      -0.204700
      4 CC           3.5280    -1.4380    -1.1090 c          1 TPY       0.718000
      5 CD           4.6410     1.2730    -0.2430 c3         1 TPY      -0.067400
      6 CE           5.0770     2.7310    -0.5010 c3         1 TPY      -0.089100
      7 O            1.5220     2.8060     0.0720 o          1 TPY      -0.549100
      8 OA           4.2480    -2.2690    -0.5780 o          1 TPY      -0.709500
      9 OB           3.3980    -1.3340    -2.3200 o          1 TPY      -0.709500
     10 OC          -0.7980    -2.9630    -1.4530 o          1 TPY      -0.558500
     11 OD          -0.9150    -3.5710     1.0390 o          1 TPY      -0.558500
     12 S           -0.7040    -2.6020    -0.0380 sy         1 TPY       1.143600
     13 CK           1.2110    -0.7450    -0.3780 c3         1 TPY       0.209800
     14 CF          -1.6710    -1.1190     0.3000 ca         1 TPY      -0.250500
     15 CG1         -2.2030    -0.3550    -0.7590 ca         1 TPY      -0.018500
     16 CG2         -1.8810    -0.7080     1.6310 ca         1 TPY      -0.018500
     17 CH1         -2.9400     0.8100    -0.4870 ca         1 TPY      -0.072500
     18 CH2         -2.6180     0.4570     1.9030 ca         1 TPY      -0.072500
     19 CI          -3.1570     1.2310     0.8470 ca         1 TPY      -0.139200
     20 NJ          -3.9430     2.4750     1.1370 no         1 TPY       0.692200
     21 OE          -4.3970     3.1180     0.1810 o          1 TPY      -0.407500
     22 OF          -4.1050     2.8050     2.3200 o          1 TPY      -0.407500
     23 H            2.4710     1.8270     1.5840 h4         1 TPY      -0.034800
     24 HA           2.8530     1.2880    -1.4580 hc         1 TPY       0.087700
     25 HB           2.9770    -0.7270     0.8410 hc         1 TPY       0.056700
     26 HD2          4.9400     0.9870     0.7740 hc         1 TPY       0.054200
     27 HD1          5.2060     0.6290    -0.9270 hc         1 TPY       0.054200
     28 HE3          4.6290     3.4160     0.2290 hc         1 TPY       0.025700
     29 HE2          4.7810     3.0520    -1.5070 hc         1 TPY       0.025700
     30 HE1          6.1670     2.8200    -0.4210 hc         1 TPY       0.025700
     31 HN1          1.3420    -2.7850    -0.3460 hn         1 TPY       0.560000
     32 HK2          0.9480    -0.6730    -1.4430 h1         1 TPY       0.036700
     33 HK1          0.6490     0.0350     0.1510 h1         1 TPY       0.036700
     34 HG1         -2.0460    -0.6570    -1.7930 ha         1 TPY       0.151500
     35 HG2         -1.4670    -1.2860     2.4570 ha         1 TPY       0.151500
     36 HH1         -3.3400     1.3830    -1.3230 ha         1 TPY       0.147500
     37 HH2         -2.7640     0.7530     2.9410 ha         1 TPY       0.147500
     38 N            0.8520    -2.0580     0.1730 n7         1 TPY      -0.879300
@<TRIPOS>BOND
     1     1     2 1   
     2     1     7 2   
     3     1    23 1   
     4     2     3 1   
     5     2     5 1   
     6     2    24 1   
     7     3     4 1   
     8     3    13 1   
     9     3    25 1   
    10     4     8 1   
    11     4     9 1   
    12     5     6 1   
    13     5    26 1   
    14     5    27 1   
    15     6    28 1   
    16     6    29 1   
    17     6    30 1   
    18    10    12 2   
    19    11    12 2   
    20    12    14 1   
    21    12    38 1   
    22    13    32 1   
    23    13    33 1   
    24    13    38 1   
    25    14    15 ar  
    26    14    16 ar  
    27    15    17 ar  
    28    15    34 1   
    29    16    18 ar  
    30    16    35 1   
    31    17    19 ar  
    32    17    36 1   
    33    18    19 ar  
    34    18    37 1   
    35    19    20 1   
    36    20    21 1   
    37    20    22 1   
    38    31    38 1   
@<TRIPOS>SUBSTRUCTURE
     1 TPY         1 TEMP              0 ****  ****    0 ROOT
