@<TRIPOS>MOLECULE
TQ1
   33    36     1     0     0
SMALL
abcg2


@<TRIPOS>ATOM
      1 C1           5.5250    -0.6510     0.1510 cc         1 TQ1      -0.187000
      2 C7           1.3290    -1.9810    -0.0930 ca         1 TQ1      -0.119000
      3 C8          -0.0290    -2.1990    -0.0910 ca         1 TQ1      -0.073000
      4 C2           4.3070    -1.3550     0.2580 cc         1 TQ1      -0.146000
      5 C19          0.9540     0.3870     0.0300 ca         1 TQ1      -0.145000
      6 C5           5.2130     0.6430    -0.1880 cd         1 TQ1      -0.180000
      7 C6           1.8450    -0.6810    -0.0270 ca         1 TQ1       0.045000
      8 C9          -0.9450    -1.1410    -0.0410 ca         1 TQ1      -0.094000
      9 C18         -0.4170     0.1620     0.0110 ca         1 TQ1       0.040000
     10 C3           3.2820    -0.4710    -0.0170 cd         1 TQ1      -0.148000
     11 C11         -3.2260    -0.3070     0.0170 cc         1 TQ1      -0.081000
     12 C10         -2.3820    -1.3560    -0.0390 cd         1 TQ1      -0.037300
     13 C12         -2.6950     1.0120     0.0520 cc         1 TQ1      -0.041000
     14 C15         -1.1000     2.5890     0.0750 c          1 TQ1       0.529800
     15 C20         -2.8850    -2.7650    -0.0990 c3         1 TQ1       0.204900
     16 N13         -3.3420     2.1320     0.0770 nd         1 TQ1      -0.189600
     17 N4           3.8640     0.7380    -0.2790 na         1 TQ1      -0.094000
     18 N14         -2.3660     3.0750     0.0920 ns         1 TQ1      -0.364400
     19 N17         -1.3310     1.2100     0.0510 n          1 TQ1      -0.030800
     20 O16         -0.0460     3.1870     0.0780 o          1 TQ1      -0.558000
     21 O21         -4.2800    -2.7870    -0.0990 oh         1 TQ1      -0.653000
     22 H1           6.5150    -1.0440     0.3100 ha         1 TQ1       0.134000
     23 H2           4.1910    -2.3920     0.5320 ha         1 TQ1       0.130000
     24 H5           5.8450     1.4930    -0.3800 h4         1 TQ1       0.148000
     25 H8          -0.3820    -3.2200    -0.1410 ha         1 TQ1       0.114000
     26 H19          1.3100     1.4030     0.1140 ha         1 TQ1       0.147000
     27 H4           3.3790     1.5700    -0.5660 hn         1 TQ1       0.351000
     28 H11         -4.3000    -0.4230     0.0210 ha         1 TQ1       0.163000
     29 H201        -2.4740    -3.2410    -1.0000 h1         1 TQ1       0.033200
     30 H202        -2.4710    -3.3180     0.7560 h1         1 TQ1       0.033200
     31 H14         -2.6030     4.0520     0.1120 hn         1 TQ1       0.492000
     32 H21         -4.5500    -3.6980    -0.2260 ho         1 TQ1       0.452000
     33 H7           1.9980    -2.8280    -0.1570 ha         1 TQ1       0.125000
@<TRIPOS>BOND
     1     1     4 1   
     2     1     6 2   
     3     1    22 1   
     4     2     3 ar  
     5     2     7 ar  
     6     2    33 1   
     7     3     8 ar  
     8     3    25 1   
     9     4    10 2   
    10     4    23 1   
    11     5     7 ar  
    12     5     9 ar  
    13     5    26 1   
    14     6    17 1   
    15     6    24 1   
    16     7    10 1   
    17     8     9 ar  
    18     8    12 1   
    19     9    19 1   
    20    10    17 1   
    21    11    12 2   
    22    11    13 1   
    23    11    28 1   
    24    12    15 1   
    25    13    16 2   
    26    13    19 1   
    27    14    18 1   
    28    14    19 1   
    29    14    20 2   
    30    15    21 1   
    31    15    29 1   
    32    15    30 1   
    33    16    18 1   
    34    17    27 1   
    35    18    31 1   
    36    21    32 1   
@<TRIPOS>SUBSTRUCTURE
     1 TQ1         1 TEMP              0 ****  ****    0 ROOT
