@<TRIPOS>MOLECULE
TQ1
   33    36     1     0     0
SMALL
No Charge or Current Charge


@<TRIPOS>ATOM
      1 C1           5.5790    -0.6920    -0.0130 cc         1 TQ1      -0.187000
      2 C7           1.3610    -1.9910    -0.0300 ca         1 TQ1      -0.119000
      3 C8          -0.0230    -2.2220    -0.0340 ca         1 TQ1      -0.073000
      4 C2           4.3440    -1.3600    -0.0200 cc         1 TQ1      -0.146000
      5 C19          0.9620     0.3950    -0.0150 ca         1 TQ1      -0.145000
      6 C5           5.3580     0.6550    -0.0050 cd         1 TQ1      -0.180000
      7 C6           1.8710    -0.6810    -0.0200 ca         1 TQ1       0.045000
      8 C9          -0.9380    -1.1460    -0.0290 ca         1 TQ1      -0.094000
      9 C18         -0.4350     0.1760    -0.0190 ca         1 TQ1       0.040000
     10 C3           3.3300    -0.4370    -0.0160 cd         1 TQ1      -0.148000
     11 C11         -3.2610    -0.2900    -0.0280 cc         1 TQ1      -0.081000
     12 C10         -2.4060    -1.3840    -0.0330 cd         1 TQ1      -0.037300
     13 C12         -2.7590     1.0520    -0.0180 cc         1 TQ1      -0.041000
     14 C15         -1.1670     2.6440    -0.0050 c          1 TQ1       0.529800
     15 C20         -2.9470    -2.8100    -0.0430 c3         1 TQ1       0.204900
     16 N13         -3.4360     2.1900    -0.0120 nd         1 TQ1      -0.189600
     17 N4           3.9650     0.8180    -0.0070 na         1 TQ1      -0.094000
     18 N14         -2.4430     3.1200    -0.0040 ns         1 TQ1      -0.364400
     19 N17         -1.3830     1.2590    -0.0140 n          1 TQ1      -0.030800
     20 O16         -0.1340     3.2970     0.0010 o          1 TQ1      -0.558000
     21 O21         -4.3810    -2.8900    -0.0460 oh         1 TQ1      -0.653000
     22 H1           6.5490    -1.1840    -0.0150 ha         1 TQ1       0.134000
     23 H2           4.2420    -2.4410    -0.0270 ha         1 TQ1       0.130000
     24 H5           6.0530     1.4890     0.0020 h4         1 TQ1       0.148000
     25 H8          -0.3670    -3.2530    -0.0410 ha         1 TQ1       0.114000
     26 H19          1.3530     1.4030    -0.0080 ha         1 TQ1       0.147000
     27 H4           3.4880     1.7150    -0.0020 hn         1 TQ1       0.351000
     28 H11         -4.3390    -0.4150    -0.0300 ha         1 TQ1       0.163000
     29 H201        -2.5500    -3.3220    -0.9300 h1         1 TQ1       0.033200
     30 H202        -2.5530    -3.3330     0.8390 h1         1 TQ1       0.033200
     31 H14         -2.6200     4.1230     0.0020 hn         1 TQ1       0.492000
     32 H21         -4.6120    -3.8460    -0.0520 ho         1 TQ1       0.452000
     33 H7           2.0320    -2.8450    -0.0340 ha         1 TQ1       0.125000
@<TRIPOS>BOND
     1     1     4 1   
     2     1     6 2   
     3     1    22 1   
     4     2     3 ar  
     5     2     7 ar  
     6     2    33 1   
     7     3     8 ar  
     8     3    25 1   
     9     4    10 2   
    10     4    23 1   
    11     5     7 ar  
    12     5     9 ar  
    13     5    26 1   
    14     6    17 1   
    15     6    24 1   
    16     7    10 1   
    17     8     9 ar  
    18     8    12 1   
    19     9    19 1   
    20    10    17 1   
    21    11    12 2   
    22    11    13 1   
    23    11    28 1   
    24    12    15 1   
    25    13    16 2   
    26    13    19 1   
    27    14    18 1   
    28    14    19 1   
    29    14    20 2   
    30    15    21 1   
    31    15    29 1   
    32    15    30 1   
    33    16    18 1   
    34    17    27 1   
    35    18    31 1   
    36    21    32 1   
@<TRIPOS>SUBSTRUCTURE
     1 TQ1         1 TEMP              0 ****  ****    0 ROOT
