@<TRIPOS>MOLECULE
TQ2
   54    56     1     0     0
SMALL
abcg2


@<TRIPOS>ATOM
      1 C01          2.6300     3.5870    -1.0290 ca         1 TQ2      -0.086000
      2 C02          1.6250     2.7030    -0.5770 ca         1 TQ2       0.268000
      3 C03          1.8490     1.3090    -0.6180 ca         1 TQ2      -0.066000
      4 C04          3.1020     0.8410    -1.0790 ca         1 TQ2      -0.086000
      5 C05          4.0640     1.7170    -1.5070 ca         1 TQ2      -0.137000
      6 C06          3.8250     3.1050    -1.4890 ca         1 TQ2      -0.128000
      7 N07          0.4780     3.2320    -0.0960 nb         1 TQ2      -0.712000
      8 C08         -0.4700     2.4450     0.3410 ca         1 TQ2       0.420300
      9 C09         -0.3660     1.0160     0.3140 ca         1 TQ2      -0.042300
     10 C10          0.7980     0.4570    -0.1640 cp         1 TQ2      -0.024000
     11 C11         -1.6820     3.1460     0.8830 c3         1 TQ2      -0.143400
     12 C12          1.0040    -1.0110    -0.2180 cp         1 TQ2      -0.026000
     13 C13         -1.5170     0.1670     0.7990 c3         1 TQ2       0.049600
     14 O14         -2.7340     0.5640     0.2270 os         1 TQ2      -0.433000
     15 C15          1.1470    -1.6600    -1.4410 ca         1 TQ2      -0.112000
     16 C16          1.3500    -3.0310    -1.4810 ca         1 TQ2      -0.126000
     17 C17          1.4240    -3.7890    -0.3170 ca         1 TQ2      -0.089300
     18 C18          1.2870    -3.1430     0.9190 ca         1 TQ2      -0.081300
     19 C19          1.0790    -1.7680     0.9490 ca         1 TQ2      -0.073000
     20 C20          1.6430    -5.2710    -0.3880 c3         1 TQ2      -0.038800
     21 C21          1.3610    -3.9210     2.2000 c3         1 TQ2      -0.042800
     22 C22         -3.2650    -0.1810    -0.8640 c3         1 TQ2       0.191000
     23 C23         -2.2990    -0.2310    -2.0470 c3         1 TQ2      -0.101433
     24 C24         -3.6400    -1.5960    -0.4240 c3         1 TQ2      -0.101433
     25 C25         -4.5240     0.5800    -1.2630 c3         1 TQ2      -0.101433
     26 C26         -1.6240     0.1750     2.3520 c          1 TQ2       0.725000
     27 O27         -2.7380    -0.0700     2.8350 o          1 TQ2      -0.708000
     28 O28         -0.5580     0.3790     2.9680 o          1 TQ2      -0.708000
     29 H01          2.4300     4.6510    -0.9930 ha         1 TQ2       0.116000
     30 H04          3.3070    -0.2210    -1.0910 ha         1 TQ2       0.114000
     31 H05          5.0170     1.3420    -1.8560 ha         1 TQ2       0.096000
     32 H06          4.5930     3.7870    -1.8310 ha         1 TQ2       0.096000
     33 H11         -2.5120     3.1040     0.1790 hc         1 TQ2       0.056700
     34 H11A        -2.0340     2.7110     1.8170 hc         1 TQ2       0.056700
     35 H11B        -1.4370     4.1910     1.0630 hc         1 TQ2       0.056700
     36 H13         -1.2900    -0.8760     0.5470 h1         1 TQ2       0.039700
     37 H15          1.0990    -1.0950    -2.3640 ha         1 TQ2       0.110000
     38 H16          1.4580    -3.5220    -2.4410 ha         1 TQ2       0.095000
     39 H19          0.9560    -1.2690     1.9030 ha         1 TQ2       0.168000
     40 H20          2.5140    -5.5790     0.1950 hc         1 TQ2       0.031367
     41 H20A         0.7890    -5.8230     0.0110 hc         1 TQ2       0.031367
     42 H20B         1.7990    -5.5990    -1.4150 hc         1 TQ2       0.031367
     43 H21          2.3110    -4.4520     2.2930 hc         1 TQ2       0.038033
     44 H21A         1.2600    -3.2680     3.0660 hc         1 TQ2       0.038033
     45 H21B         0.5730    -4.6750     2.2590 hc         1 TQ2       0.038033
     46 H23         -1.4120    -0.8250    -1.8250 hc         1 TQ2       0.033367
     47 H23A        -2.7850    -0.6900    -2.9100 hc         1 TQ2       0.033367
     48 H23B        -1.9730     0.7700    -2.3330 hc         1 TQ2       0.033367
     49 H24         -4.3130    -1.5690     0.4340 hc         1 TQ2       0.033367
     50 H24A        -4.1390    -2.1280    -1.2350 hc         1 TQ2       0.033367
     51 H24B        -2.7650    -2.1880    -0.1450 hc         1 TQ2       0.033367
     52 H25         -4.2860     1.6040    -1.5600 hc         1 TQ2       0.033367
     53 H25A        -5.0170     0.0930    -2.1060 hc         1 TQ2       0.033367
     54 H25B        -5.2370     0.6230    -0.4380 hc         1 TQ2       0.033367
@<TRIPOS>BOND
     1     1     2 ar  
     2     1     6 ar  
     3     1    29 1   
     4     2     3 ar  
     5     2     7 ar  
     6     3     4 ar  
     7     3    10 ar  
     8     4     5 ar  
     9     4    30 1   
    10     5     6 ar  
    11     5    31 1   
    12     6    32 1   
    13     7     8 ar  
    14     8     9 ar  
    15     8    11 1   
    16     9    10 ar  
    17     9    13 1   
    18    10    12 1   
    19    11    33 1   
    20    11    34 1   
    21    11    35 1   
    22    12    15 ar  
    23    12    19 ar  
    24    13    14 1   
    25    13    26 1   
    26    13    36 1   
    27    14    22 1   
    28    15    16 ar  
    29    15    37 1   
    30    16    17 ar  
    31    16    38 1   
    32    17    18 ar  
    33    17    20 1   
    34    18    19 ar  
    35    18    21 1   
    36    19    39 1   
    37    20    40 1   
    38    20    41 1   
    39    20    42 1   
    40    21    43 1   
    41    21    44 1   
    42    21    45 1   
    43    22    23 1   
    44    22    24 1   
    45    22    25 1   
    46    23    46 1   
    47    23    47 1   
    48    23    48 1   
    49    24    49 1   
    50    24    50 1   
    51    24    51 1   
    52    25    52 1   
    53    25    53 1   
    54    25    54 1   
    55    26    27 1   
    56    26    28 1   
@<TRIPOS>SUBSTRUCTURE
     1 TQ2         1 TEMP              0 ****  ****    0 ROOT
