@<TRIPOS>MOLECULE
TQ2
   54    56     1     0     0
SMALL
No Charge or Current Charge


@<TRIPOS>ATOM
      1 C01          2.5670     3.5240    -1.0900 ca         1 TQ2      -0.086000
      2 C02          1.5630     2.6740    -0.5880 ca         1 TQ2       0.268000
      3 C03          1.7680     1.2710    -0.6170 ca         1 TQ2      -0.066000
      4 C04          2.9810     0.7580    -1.1380 ca         1 TQ2      -0.086000
      5 C05          3.9690     1.6220    -1.6330 ca         1 TQ2      -0.137000
      6 C06          3.7630     3.0070    -1.6120 ca         1 TQ2      -0.128000
      7 N07          0.4380     3.2210    -0.0880 nb         1 TQ2      -0.712000
      8 C08         -0.5330     2.4150     0.3990 ca         1 TQ2       0.420300
      9 C09         -0.4340     0.9970     0.4030 ca         1 TQ2      -0.042300
     10 C10          0.7580     0.4040    -0.1140 cp         1 TQ2      -0.024000
     11 C11         -1.7420     3.1790     0.9310 c3         1 TQ2      -0.143400
     12 C12          0.9410    -1.0810    -0.1390 cp         1 TQ2      -0.026000
     13 C13         -1.5780     0.1230     0.9630 c3         1 TQ2       0.049600
     14 O14         -2.8530     0.4220     0.3000 os         1 TQ2      -0.433000
     15 C15          0.8730    -1.7990    -1.3530 ca         1 TQ2      -0.112000
     16 C16          1.0330    -3.1930    -1.3740 ca         1 TQ2      -0.126000
     17 C17          1.2720    -3.9040    -0.1820 ca         1 TQ2      -0.089300
     18 C18          1.3560    -3.2010     1.0420 ca         1 TQ2      -0.081300
     19 C19          1.1940    -1.8010     1.0500 ca         1 TQ2      -0.073000
     20 C20          1.4390    -5.4200    -0.2380 c3         1 TQ2      -0.038800
     21 C21          1.6180    -3.9300     2.3570 c3         1 TQ2      -0.042800
     22 C22         -3.1560    -0.1080    -1.0200 c3         1 TQ2       0.191000
     23 C23         -2.2260     0.5260    -2.0840 c3         1 TQ2      -0.101433
     24 C24         -3.0580    -1.6560    -1.0010 c3         1 TQ2      -0.101433
     25 C25         -4.6170     0.3270    -1.2790 c3         1 TQ2      -0.101433
     26 C26         -1.6680     0.2620     2.5270 c          1 TQ2       0.725000
     27 O27         -2.7570     0.4490     3.0570 o          1 TQ2      -0.708000
     28 O28         -0.6280     0.2000     3.1710 o          1 TQ2      -0.708000
     29 H01          2.4140     4.6000    -1.0720 ha         1 TQ2       0.116000
     30 H04          3.1740    -0.3110    -1.1610 ha         1 TQ2       0.114000
     31 H05          4.8960     1.2160    -2.0320 ha         1 TQ2       0.096000
     32 H06          4.5270     3.6800    -1.9950 ha         1 TQ2       0.096000
     33 H11         -2.6290     2.9920     0.3160 hc         1 TQ2       0.056700
     34 H11A        -1.9720     2.9000     1.9630 hc         1 TQ2       0.056700
     35 H11B        -1.5740     4.2630     0.9270 hc         1 TQ2       0.056700
     36 H13         -1.3390    -0.9340     0.8190 h1         1 TQ2       0.039700
     37 H15          0.6940    -1.2680    -2.2840 ha         1 TQ2       0.110000
     38 H16          0.9720    -3.7200    -2.3230 ha         1 TQ2       0.095000
     39 H19          1.2640    -1.2550     1.9890 ha         1 TQ2       0.168000
     40 H20          2.4250    -5.7230     0.1340 hc         1 TQ2       0.031367
     41 H20A         0.6780    -5.9240     0.3700 hc         1 TQ2       0.031367
     42 H20B         1.3450    -5.8030    -1.2610 hc         1 TQ2       0.031367
     43 H21          2.5780    -4.4590     2.3300 hc         1 TQ2       0.038033
     44 H21A         1.6500    -3.2390     3.2080 hc         1 TQ2       0.038033
     45 H21B         0.8320    -4.6660     2.5640 hc         1 TQ2       0.038033
     46 H23         -1.2110     0.1250    -2.0240 hc         1 TQ2       0.033367
     47 H23A        -2.5970     0.3080    -3.0930 hc         1 TQ2       0.033367
     48 H23B        -2.1820     1.6150    -1.9700 hc         1 TQ2       0.033367
     49 H24         -3.5870    -2.0720    -0.1350 hc         1 TQ2       0.033367
     50 H24A        -3.5080    -2.0790    -1.9070 hc         1 TQ2       0.033367
     51 H24B        -2.0170    -1.9960    -0.9690 hc         1 TQ2       0.033367
     52 H25         -4.7070     1.4200    -1.2600 hc         1 TQ2       0.033367
     53 H25A        -4.9610    -0.0250    -2.2590 hc         1 TQ2       0.033367
     54 H25B        -5.2880    -0.0850    -0.5160 hc         1 TQ2       0.033367
@<TRIPOS>BOND
     1     1     2 ar  
     2     1     6 ar  
     3     1    29 1   
     4     2     3 ar  
     5     2     7 ar  
     6     3     4 ar  
     7     3    10 ar  
     8     4     5 ar  
     9     4    30 1   
    10     5     6 ar  
    11     5    31 1   
    12     6    32 1   
    13     7     8 ar  
    14     8     9 ar  
    15     8    11 1   
    16     9    10 ar  
    17     9    13 1   
    18    10    12 1   
    19    11    33 1   
    20    11    34 1   
    21    11    35 1   
    22    12    15 ar  
    23    12    19 ar  
    24    13    14 1   
    25    13    26 1   
    26    13    36 1   
    27    14    22 1   
    28    15    16 ar  
    29    15    37 1   
    30    16    17 ar  
    31    16    38 1   
    32    17    18 ar  
    33    17    20 1   
    34    18    19 ar  
    35    18    21 1   
    36    19    39 1   
    37    20    40 1   
    38    20    41 1   
    39    20    42 1   
    40    21    43 1   
    41    21    44 1   
    42    21    45 1   
    43    22    23 1   
    44    22    24 1   
    45    22    25 1   
    46    23    46 1   
    47    23    47 1   
    48    23    48 1   
    49    24    49 1   
    50    24    50 1   
    51    24    51 1   
    52    25    52 1   
    53    25    53 1   
    54    25    54 1   
    55    26    27 1   
    56    26    28 1   
@<TRIPOS>SUBSTRUCTURE
     1 TQ2         1 TEMP              0 ****  ****    0 ROOT
