@<TRIPOS>MOLECULE
TQ3
   31    33     1     0     0
SMALL
No Charge or Current Charge


@<TRIPOS>ATOM
      1 C1          -1.2540    -0.1000     2.0470 ca         1 TQ3       0.094000
      2 C2          -0.1750     0.3720     1.2460 ca         1 TQ3      -0.190000
      3 C3           1.1270     0.1470     1.7820 ca         1 TQ3       0.442900
      4 N4           1.3350    -0.4560     2.9540 nb         1 TQ3      -0.358000
      5 C5           0.2450    -0.8500     3.6040 ca         1 TQ3       0.427900
      6 N6          -1.0270    -0.7100     3.2280 nb         1 TQ3      -0.301000
      7 N7           2.2970     0.5070     1.2010 nv         1 TQ3      -1.078900
      8 C8          -2.5800     0.0670     1.6110 ca         1 TQ3      -0.096000
      9 C9          -2.8600     0.6950     0.3930 ca         1 TQ3      -0.087000
     10 C12         -1.8100     1.1640    -0.4040 ca         1 TQ3      -0.098000
     11 C13         -0.4700     1.0130     0.0000 ca         1 TQ3      -0.064000
     12 N14          0.4550    -1.4580     4.7910 nv         1 TQ3      -1.059900
     13 S20          0.7630     1.6660    -1.1350 ss         1 TQ3      -0.017000
     14 C22          0.4140     0.6690    -2.5810 ca         1 TQ3      -0.115000
     15 C23          0.3430     1.2800    -3.8450 ca         1 TQ3      -0.080000
     16 C24          0.0710     0.5070    -4.9880 ca         1 TQ3      -0.112000
     17 C25         -0.1280    -0.8800    -4.8680 ca         1 TQ3      -0.096000
     18 C26         -0.0520    -1.4930    -3.6060 ca         1 TQ3      -0.112000
     19 C27          0.2210    -0.7210    -2.4630 ca         1 TQ3      -0.080000
     20 HN71         3.1340     0.5000     1.7770 hn         1 TQ3       0.509000
     21 HN72         2.2720     1.1680     0.4330 hn         1 TQ3       0.509000
     22 HC8         -3.4000    -0.2950     2.2270 ha         1 TQ3       0.133000
     23 HC9         -3.8900     0.8180     0.0660 ha         1 TQ3       0.118000
     24 H12         -2.0380     1.6510    -1.3500 ha         1 TQ3       0.128000
     25 H141         1.3750    -1.3690     5.2130 hn         1 TQ3       0.490500
     26 H142        -0.3330    -1.5570     5.4260 hn         1 TQ3       0.490500
     27 H23          0.4960     2.3530    -3.9420 ha         1 TQ3       0.126000
     28 H24          0.0130     0.9820    -5.9650 ha         1 TQ3       0.116500
     29 H25         -0.3390    -1.4780    -5.7530 ha         1 TQ3       0.115000
     30 H26         -0.2030    -2.5660    -3.5130 ha         1 TQ3       0.116500
     31 H27          0.2830    -1.2030    -1.4900 ha         1 TQ3       0.126000
@<TRIPOS>BOND
     1     1     2 ar  
     2     1     6 ar  
     3     1     8 ar  
     4     2     3 ar  
     5     2    11 ar  
     6     3     4 ar  
     7     3     7 1   
     8     4     5 ar  
     9     5     6 ar  
    10     5    12 1   
    11     7    20 1   
    12     7    21 1   
    13     8     9 ar  
    14     8    22 1   
    15     9    10 ar  
    16     9    23 1   
    17    10    11 ar  
    18    10    24 1   
    19    11    13 1   
    20    12    25 1   
    21    12    26 1   
    22    13    14 1   
    23    14    15 ar  
    24    14    19 ar  
    25    15    16 ar  
    26    15    27 1   
    27    16    17 ar  
    28    16    28 1   
    29    17    18 ar  
    30    17    29 1   
    31    18    19 ar  
    32    18    30 1   
    33    19    31 1   
@<TRIPOS>SUBSTRUCTURE
     1 TQ3         1 TEMP              0 ****  ****    0 ROOT
