@<TRIPOS>MOLECULE
TQ3
   31    33     1     0     0
SMALL
bcc


@<TRIPOS>ATOM
      1 C1          -1.3250     0.0200     2.0230 ca         1 TQ3       0.487600
      2 C2          -0.3110     0.4850     1.1420 ca         1 TQ3      -0.320600
      3 C3           1.0340     0.1070     1.5470 ca         1 TQ3       0.771200
      4 N4           1.2410    -0.6000     2.6400 nb         1 TQ3      -0.884000
      5 C5           0.1880    -0.9780     3.3810 ca         1 TQ3       0.953900
      6 N6          -1.0750    -0.7040     3.1340 nb         1 TQ3      -0.827000
      7 N7           2.1270     0.4280     0.8520 nv         1 TQ3      -0.968500
      8 C8          -2.6780     0.3180     1.7440 ca         1 TQ3      -0.179300
      9 C9          -3.0230     1.0450     0.6400 ca         1 TQ3      -0.105000
     10 C12         -2.0330     1.5120    -0.2330 ca         1 TQ3      -0.116000
     11 C13         -0.7050     1.2350     0.0030 ca         1 TQ3       0.062900
     12 N14          0.4750    -1.7360     4.4610 nv         1 TQ3      -0.949500
     13 S20          0.4260     1.9290    -1.1960 ss         1 TQ3      -0.270800
     14 C22          0.3450     0.7260    -2.5020 ca         1 TQ3       0.011900
     15 C23          0.1750     1.1890    -3.8020 ca         1 TQ3      -0.098000
     16 C24          0.1570     0.2870    -4.8590 ca         1 TQ3      -0.130000
     17 C25          0.2880    -1.0730    -4.6180 ca         1 TQ3      -0.114000
     18 C26          0.4520    -1.5310    -3.3160 ca         1 TQ3      -0.130000
     19 C27          0.4950    -0.6360    -2.2580 ca         1 TQ3      -0.098000
     20 HN71         3.0210     0.1670     1.2330 hn         1 TQ3       0.453800
     21 HN72         2.1010     1.0360     0.0510 hn         1 TQ3       0.453800
     22 HC8         -3.4290    -0.0460     2.4320 ha         1 TQ3       0.151000
     23 HC9         -4.0620     1.2690     0.4350 ha         1 TQ3       0.136000
     24 H12         -2.3110     2.0950    -1.1000 ha         1 TQ3       0.146000
     25 H141         1.4250    -1.7650     4.7870 hn         1 TQ3       0.435300
     26 H142        -0.2450    -1.8820     5.1470 hn         1 TQ3       0.435300
     27 H23          0.0470     2.2470    -3.9900 ha         1 TQ3       0.144000
     28 H24          0.0240     0.6510    -5.8690 ha         1 TQ3       0.134500
     29 H25          0.2620    -1.7760    -5.4400 ha         1 TQ3       0.133000
     30 H26          0.5570    -2.5910    -3.1220 ha         1 TQ3       0.134500
     31 H27          0.6420    -1.0030    -1.2500 ha         1 TQ3       0.144000
@<TRIPOS>BOND
     1     1     2 ar  
     2     1     6 ar  
     3     1     8 ar  
     4     2     3 ar  
     5     2    11 ar  
     6     3     4 ar  
     7     3     7 1   
     8     4     5 ar  
     9     5     6 ar  
    10     5    12 1   
    11     7    20 1   
    12     7    21 1   
    13     8     9 ar  
    14     8    22 1   
    15     9    10 ar  
    16     9    23 1   
    17    10    11 ar  
    18    10    24 1   
    19    11    13 1   
    20    12    25 1   
    21    12    26 1   
    22    13    14 1   
    23    14    15 ar  
    24    14    19 ar  
    25    15    16 ar  
    26    15    27 1   
    27    16    17 ar  
    28    16    28 1   
    29    17    18 ar  
    30    17    29 1   
    31    18    19 ar  
    32    18    30 1   
    33    19    31 1   
@<TRIPOS>SUBSTRUCTURE
     1 TQ3         1 TEMP              0 ****  ****    0 ROOT
