@<TRIPOS>MOLECULE
TQ4
   34    36     1     0     0
SMALL
bcc


@<TRIPOS>ATOM
      1 C1          -1.2420    -0.0010    -2.4850 ca         1 TQ4       0.496600
      2 C2          -0.0990    -0.2780    -1.6810 ca         1 TQ4      -0.327600
      3 C3           1.1620    -0.0130    -2.3510 ca         1 TQ4       0.772200
      4 N4           1.1990     0.3270    -3.6230 nb         1 TQ4      -0.884000
      5 C5           0.0420     0.4830    -4.2870 ca         1 TQ4       0.955900
      6 N6          -1.1650     0.3780    -3.7780 nb         1 TQ4      -0.828000
      7 N7           2.3510    -0.0940    -1.7440 nv         1 TQ4      -0.962500
      8 C8          -2.5300    -0.1210    -1.9240 ca         1 TQ4      -0.197300
      9 C9          -2.6890    -0.5390    -0.6310 ca         1 TQ4      -0.090000
     10 C12         -1.5790    -0.8740     0.1500 ca         1 TQ4      -0.155000
     11 C13         -0.3030    -0.7430    -0.3550 ca         1 TQ4       0.082900
     12 N14          0.1560     0.7610    -5.6030 nv         1 TQ4      -0.951500
     13 S20          1.0430    -1.2870     0.6820 ss         1 TQ4      -0.244800
     14 C22          0.5550    -0.7050     2.2800 ca         1 TQ4      -0.009100
     15 C23          0.4160     0.6560     2.5380 ca         1 TQ4      -0.084500
     16 C24          0.0820     1.0840     3.8100 ca         1 TQ4      -0.137500
     17 C25         -0.0990     0.1760     4.8560 ca         1 TQ4      -0.051300
     18 C26          0.0610    -1.1780     4.5840 ca         1 TQ4      -0.137500
     19 C27          0.3770    -1.6230     3.3060 ca         1 TQ4      -0.084500
     20 C32         -0.4730     0.6580     6.2260 c3         1 TQ4      -0.051800
     21 HN71         3.1580     0.1940    -2.2720 hn         1 TQ4       0.448800
     22 HN72         2.4460    -0.1660    -0.7460 hn         1 TQ4       0.448800
     23 HC8         -3.3830     0.1150    -2.5470 ha         1 TQ4       0.151000
     24 HC9         -3.6810    -0.6390    -0.2100 ha         1 TQ4       0.133000
     25 H12         -1.7310    -1.2440     1.1540 ha         1 TQ4       0.142000
     26 H141         1.0480     1.0560    -5.9600 hn         1 TQ4       0.435800
     27 H142        -0.6600     1.0750    -6.1000 hn         1 TQ4       0.435800
     28 H23          0.5620     1.3790     1.7450 ha         1 TQ4       0.143500
     29 H24         -0.0290     2.1460     3.9980 ha         1 TQ4       0.134000
     30 H26         -0.0700    -1.9050     5.3770 ha         1 TQ4       0.134000
     31 H27          0.4800    -2.6830     3.1130 ha         1 TQ4       0.143500
     32 H321        -1.5060     1.0080     6.2460 hc         1 TQ4       0.046367
     33 H322        -0.3790    -0.1330     6.9690 hc         1 TQ4       0.046367
     34 H323         0.1540     1.4930     6.5390 hc         1 TQ4       0.046367
@<TRIPOS>BOND
     1     1     2 ar  
     2     1     6 ar  
     3     1     8 ar  
     4     2     3 ar  
     5     2    11 ar  
     6     3     4 ar  
     7     3     7 1   
     8     4     5 ar  
     9     5     6 ar  
    10     5    12 1   
    11     7    21 1   
    12     7    22 1   
    13     8     9 ar  
    14     8    23 1   
    15     9    10 ar  
    16     9    24 1   
    17    10    11 ar  
    18    10    25 1   
    19    11    13 1   
    20    12    26 1   
    21    12    27 1   
    22    13    14 1   
    23    14    15 ar  
    24    14    19 ar  
    25    15    16 ar  
    26    15    28 1   
    27    16    17 ar  
    28    16    29 1   
    29    17    18 ar  
    30    17    20 1   
    31    18    19 ar  
    32    18    30 1   
    33    19    31 1   
    34    20    32 1   
    35    20    33 1   
    36    20    34 1   
@<TRIPOS>SUBSTRUCTURE
     1 TQ4         1 TEMP              0 ****  ****    0 ROOT
