@<TRIPOS>MOLECULE
TQ4
   34    36     1     0     0
SMALL
No Charge or Current Charge


@<TRIPOS>ATOM
      1 C1          -1.3030    -0.0240    -2.3560 ca         1 TQ4       0.103000
      2 C2          -0.2020    -0.5110    -1.5940 ca         1 TQ4      -0.197000
      3 C3           1.0870    -0.1900    -2.1090 ca         1 TQ4       0.443900
      4 N4           1.2660     0.5140    -3.2290 nb         1 TQ4      -0.358000
      5 C5           0.1590     0.9050    -3.8500 ca         1 TQ4       0.429900
      6 N6          -1.1050     0.6850    -3.4860 nb         1 TQ4      -0.302000
      7 N7           2.2740    -0.5270    -1.5470 nv         1 TQ4      -1.072900
      8 C8          -2.6180    -0.2770    -1.9320 ca         1 TQ4      -0.114000
      9 C9          -2.8680    -1.0070    -0.7650 ca         1 TQ4      -0.072000
     10 C12         -1.7960    -1.4950    -0.0100 ca         1 TQ4      -0.137000
     11 C13         -0.4650    -1.2610    -0.4040 ca         1 TQ4      -0.044000
     12 N14          0.3390     1.6200    -4.9810 nv         1 TQ4      -1.061900
     13 S20          0.7970    -1.9620     0.6680 ss         1 TQ4       0.009000
     14 C22          0.4870    -1.0330     2.1680 ca         1 TQ4      -0.136000
     15 C23          0.2320     0.3510     2.1200 ca         1 TQ4      -0.066500
     16 C24         -0.0080     1.0650     3.3070 ca         1 TQ4      -0.119500
     17 C25          0.0080     0.4050     4.5500 ca         1 TQ4      -0.051300
     18 C26          0.2660    -0.9780     4.5940 ca         1 TQ4      -0.119500
     19 C27          0.5070    -1.6940     3.4080 ca         1 TQ4      -0.066500
     20 C32         -0.2560     1.1780     5.8330 c3         1 TQ4      -0.051800
     21 HN71         3.1050    -0.0530    -1.8880 hn         1 TQ4       0.504000
     22 HN72         2.2790    -0.8170    -0.5760 hn         1 TQ4       0.504000
     23 HC8         -3.4550     0.0990    -2.5160 ha         1 TQ4       0.133000
     24 HC9         -3.8910    -1.1960    -0.4470 ha         1 TQ4       0.115000
     25 H12         -1.9990    -2.0630     0.8950 ha         1 TQ4       0.124000
     26 H141         1.2630     2.0060    -5.1550 hn         1 TQ4       0.491000
     27 H142        -0.4520     2.1390    -5.3520 hn         1 TQ4       0.491000
     28 H23          0.2210     0.8770     1.1670 ha         1 TQ4       0.125500
     29 H24         -0.2070     2.1330     3.2580 ha         1 TQ4       0.116000
     30 H26          0.2800    -1.5010     5.5480 ha         1 TQ4       0.116000
     31 H27          0.7050    -2.7630     3.4530 ha         1 TQ4       0.125500
     32 H321        -1.3260     1.1860     6.0700 hc         1 TQ4       0.046367
     33 H322         0.2730     0.7330     6.6840 hc         1 TQ4       0.046367
     34 H323         0.0770     2.2190     5.7480 hc         1 TQ4       0.046367
@<TRIPOS>BOND
     1     1     2 ar  
     2     1     6 ar  
     3     1     8 ar  
     4     2     3 ar  
     5     2    11 ar  
     6     3     4 ar  
     7     3     7 1   
     8     4     5 ar  
     9     5     6 ar  
    10     5    12 1   
    11     7    21 1   
    12     7    22 1   
    13     8     9 ar  
    14     8    23 1   
    15     9    10 ar  
    16     9    24 1   
    17    10    11 ar  
    18    10    25 1   
    19    11    13 1   
    20    12    26 1   
    21    12    27 1   
    22    13    14 1   
    23    14    15 ar  
    24    14    19 ar  
    25    15    16 ar  
    26    15    28 1   
    27    16    17 ar  
    28    16    29 1   
    29    17    18 ar  
    30    17    20 1   
    31    18    19 ar  
    32    18    30 1   
    33    19    31 1   
    34    20    32 1   
    35    20    33 1   
    36    20    34 1   
@<TRIPOS>SUBSTRUCTURE
     1 TQ4         1 TEMP              0 ****  ****    0 ROOT
