@<TRIPOS>MOLECULE
TQ5
   43    45     1     0     0
SMALL
No Charge or Current Charge


@<TRIPOS>ATOM
      1 C1          -1.3010     0.1670    -3.1200 ca         1 TQ5       0.105000
      2 C2          -0.1970    -0.4160    -2.4340 ca         1 TQ5      -0.200000
      3 C3           1.0900    -0.0340    -2.9120 ca         1 TQ5       0.438900
      4 N4           1.2640     0.8070    -3.9340 nb         1 TQ5      -0.354000
      5 C5           0.1530     1.2790    -4.4920 ca         1 TQ5       0.425900
      6 N6          -1.1090     1.0140    -4.1520 nb         1 TQ5      -0.299000
      7 N7           2.2790    -0.4430    -2.4050 nv         1 TQ5      -1.066900
      8 C8          -2.6150    -0.1360    -2.7250 ca         1 TQ5      -0.119000
      9 C9          -2.8600    -1.0090    -1.6590 ca         1 TQ5      -0.067000
     10 C12         -1.7840    -1.5910    -0.9790 ca         1 TQ5      -0.148000
     11 C13         -0.4550    -1.3110    -1.3480 ca         1 TQ5      -0.038000
     12 N14          0.3290     2.1270    -5.5270 nv         1 TQ5      -1.056900
     13 S20          0.8110    -2.1450    -0.3820 ss         1 TQ5       0.015000
     14 C22          0.5150    -1.4100     1.2240 ca         1 TQ5      -0.141000
     15 C23          0.2640    -0.0340     1.3540 ca         1 TQ5      -0.065500
     16 C24          0.0340     0.5250     2.6220 ca         1 TQ5      -0.119500
     17 C25          0.0520    -0.2720     3.7910 ca         1 TQ5      -0.037300
     18 C26          0.3130    -1.6570     3.6410 ca         1 TQ5      -0.119500
     19 C27          0.5430    -2.2160     2.3720 ca         1 TQ5      -0.065500
     20 C32         -0.2090     0.3900     5.1720 c3         1 TQ5      -0.003700
     21 C33         -0.1560    -0.6210     6.3520 c3         1 TQ5      -0.083433
     22 C37         -1.6170     1.0450     5.1680 c3         1 TQ5      -0.083433
     23 C41          0.8660     1.4810     5.4300 c3         1 TQ5      -0.083433
     24 HN71         3.1100     0.0670    -2.6890 hn         1 TQ5       0.500500
     25 HN72         2.2900    -0.8540    -1.4790 hn         1 TQ5       0.500500
     26 HC8         -3.4540     0.3130    -3.2510 ha         1 TQ5       0.133000
     27 HC9         -3.8810    -1.2350    -1.3620 ha         1 TQ5       0.114000
     28 H12         -1.9840    -2.2700    -0.1530 ha         1 TQ5       0.124000
     29 H141         1.2480     2.1650    -5.9590 hn         1 TQ5       0.488500
     30 H142        -0.4670     2.3230    -6.1280 hn         1 TQ5       0.488500
     31 H23          0.2470     0.6070     0.4750 ha         1 TQ5       0.126000
     32 H24         -0.1590     1.5930     2.6860 ha         1 TQ5       0.117000
     33 H26          0.3440    -2.3250     4.4950 ha         1 TQ5       0.117000
     34 H27          0.7410    -3.2830     2.2810 ha         1 TQ5       0.126000
     35 H331        -0.3460    -0.1170     7.3080 hc         1 TQ5       0.037033
     36 H332        -0.9150    -1.4040     6.2370 hc         1 TQ5       0.037033
     37 H333         0.8300    -1.0970     6.4220 hc         1 TQ5       0.037033
     38 H371        -2.3900     0.2980     4.9500 hc         1 TQ5       0.037033
     39 H372        -1.8450     1.4920     6.1440 hc         1 TQ5       0.037033
     40 H373        -1.6930     1.8380     4.4160 hc         1 TQ5       0.037033
     41 H411         1.8720     1.0460     5.3990 hc         1 TQ5       0.037033
     42 H412         0.8200     2.2800     4.6810 hc         1 TQ5       0.037033
     43 H413         0.7270     1.9440     6.4140 hc         1 TQ5       0.037033
@<TRIPOS>BOND
     1     1     2 ar  
     2     1     6 ar  
     3     1     8 ar  
     4     2     3 ar  
     5     2    11 ar  
     6     3     4 ar  
     7     3     7 1   
     8     4     5 ar  
     9     5     6 ar  
    10     5    12 1   
    11     7    24 1   
    12     7    25 1   
    13     8     9 ar  
    14     8    26 1   
    15     9    10 ar  
    16     9    27 1   
    17    10    11 ar  
    18    10    28 1   
    19    11    13 1   
    20    12    29 1   
    21    12    30 1   
    22    13    14 1   
    23    14    15 ar  
    24    14    19 ar  
    25    15    16 ar  
    26    15    31 1   
    27    16    17 ar  
    28    16    32 1   
    29    17    18 ar  
    30    17    20 1   
    31    18    19 ar  
    32    18    33 1   
    33    19    34 1   
    34    20    21 1   
    35    20    22 1   
    36    20    23 1   
    37    21    35 1   
    38    21    36 1   
    39    21    37 1   
    40    22    38 1   
    41    22    39 1   
    42    22    40 1   
    43    23    41 1   
    44    23    42 1   
    45    23    43 1   
@<TRIPOS>SUBSTRUCTURE
     1 TQ5         1 TEMP              0 ****  ****    0 ROOT
