@<TRIPOS>MOLECULE
TQ5
   43    45     1     0     0
SMALL
abcg2


@<TRIPOS>ATOM
      1 C1          -1.2560     0.1680    -3.3770 ca         1 TQ5       0.105000
      2 C2          -0.0800    -0.1100    -2.6240 ca         1 TQ5      -0.200000
      3 C3           1.1490     0.0940    -3.3690 ca         1 TQ5       0.438900
      4 N4           1.1290     0.3710    -4.6560 nb         1 TQ5      -0.354000
      5 C5          -0.0570     0.5280    -5.2660 ca         1 TQ5       0.425900
      6 N6          -1.2370     0.4840    -4.6890 nb         1 TQ5      -0.299000
      7 N7           2.3670     0.0100    -2.8170 nv         1 TQ5      -1.066900
      8 C8          -2.5150     0.1140    -2.7440 ca         1 TQ5      -0.119000
      9 C9          -2.6110    -0.2440    -1.4270 ca         1 TQ5      -0.067000
     10 C12         -1.4710    -0.5880    -0.6940 ca         1 TQ5      -0.148000
     11 C13         -0.2210    -0.5250    -1.2720 ca         1 TQ5      -0.038000
     12 N14         -0.0020     0.8140    -6.5860 nv         1 TQ5      -1.056900
     13 S20          1.1790    -1.0860    -0.3210 ss         1 TQ5       0.015000
     14 C22          0.6970    -0.7410     1.3440 ca         1 TQ5      -0.141000
     15 C23          0.5830     0.5710     1.8000 ca         1 TQ5      -0.065500
     16 C24          0.2480     0.8110     3.1190 ca         1 TQ5      -0.119500
     17 C25          0.0370    -0.2330     4.0280 ca         1 TQ5      -0.037300
     18 C26          0.1730    -1.5330     3.5530 ca         1 TQ5      -0.119500
     19 C27          0.4930    -1.7910     2.2240 ca         1 TQ5      -0.065500
     20 C32         -0.3190     0.0870     5.4750 c3         1 TQ5      -0.003700
     21 C33         -0.5480    -1.1750     6.3080 c3         1 TQ5      -0.083433
     22 C37         -1.6040     0.9260     5.5050 c3         1 TQ5      -0.083433
     23 C41          0.8280     0.8810     6.1140 c3         1 TQ5      -0.083433
     24 HN71         3.1450     0.2820    -3.3980 hn         1 TQ5       0.500500
     25 HN72         2.5080     0.0500    -1.8220 hn         1 TQ5       0.500500
     26 HC8         -3.3930     0.3510    -3.3290 ha         1 TQ5       0.133000
     27 HC9         -3.5800    -0.2940    -0.9470 ha         1 TQ5       0.114000
     28 H12         -1.5850    -0.9120     0.3310 ha         1 TQ5       0.124000
     29 H141         0.8560     0.6300    -7.0770 hn         1 TQ5       0.488500
     30 H142        -0.8500     0.7370    -7.1210 hn         1 TQ5       0.488500
     31 H23          0.7470     1.3990     1.1240 ha         1 TQ5       0.126000
     32 H24          0.1580     1.8410     3.4440 ha         1 TQ5       0.117000
     33 H26          0.0260    -2.3780     4.2120 ha         1 TQ5       0.117000
     34 H27          0.5770    -2.8140     1.8810 ha         1 TQ5       0.126000
     35 H331        -0.7940    -0.8980     7.3330 hc         1 TQ5       0.037033
     36 H332        -1.3730    -1.7760     5.9230 hc         1 TQ5       0.037033
     37 H333         0.3430    -1.8040     6.3460 hc         1 TQ5       0.037033
     38 H371        -2.4350     0.3910     5.0420 hc         1 TQ5       0.037033
     39 H372        -1.8820     1.1540     6.5350 hc         1 TQ5       0.037033
     40 H373        -1.4870     1.8770     4.9820 hc         1 TQ5       0.037033
     41 H411         1.7460     0.2930     6.1380 hc         1 TQ5       0.037033
     42 H412         1.0400     1.8070     5.5770 hc         1 TQ5       0.037033
     43 H413         0.5740     1.1490     7.1410 hc         1 TQ5       0.037033
@<TRIPOS>BOND
     1     1     2 ar  
     2     1     6 ar  
     3     1     8 ar  
     4     2     3 ar  
     5     2    11 ar  
     6     3     4 ar  
     7     3     7 1   
     8     4     5 ar  
     9     5     6 ar  
    10     5    12 1   
    11     7    24 1   
    12     7    25 1   
    13     8     9 ar  
    14     8    26 1   
    15     9    10 ar  
    16     9    27 1   
    17    10    11 ar  
    18    10    28 1   
    19    11    13 1   
    20    12    29 1   
    21    12    30 1   
    22    13    14 1   
    23    14    15 ar  
    24    14    19 ar  
    25    15    16 ar  
    26    15    31 1   
    27    16    17 ar  
    28    16    32 1   
    29    17    18 ar  
    30    17    20 1   
    31    18    19 ar  
    32    18    33 1   
    33    19    34 1   
    34    20    21 1   
    35    20    22 1   
    36    20    23 1   
    37    21    35 1   
    38    21    36 1   
    39    21    37 1   
    40    22    38 1   
    41    22    39 1   
    42    22    40 1   
    43    23    41 1   
    44    23    42 1   
    45    23    43 1   
@<TRIPOS>SUBSTRUCTURE
     1 TQ5         1 TEMP              0 ****  ****    0 ROOT
