@<TRIPOS>MOLECULE
TQ6
   44    47     1     0     0
SMALL
No Charge or Current Charge


@<TRIPOS>ATOM
      1 C1           1.0520    -0.0740     3.6180 ca         1 TQ6       0.439900
      2 N2           1.1150    -0.9520     4.6210 nb         1 TQ6      -0.354000
      3 C3          -0.0500    -1.3280     5.1380 ca         1 TQ6       0.422900
      4 N4          -1.2710    -0.9400     4.7690 nb         1 TQ6      -0.298000
      5 C5          -1.6050     1.7920     1.6490 ca         1 TQ6      -0.153000
      6 C6          -0.3200     1.3800     2.0470 ca         1 TQ6      -0.036000
      7 C7          -0.1790     0.4390     3.1160 ca         1 TQ6      -0.200000
      8 C8          -1.3530    -0.0540     3.7550 ca         1 TQ6       0.105000
      9 C9          -2.6200     0.3800     3.3310 ca         1 TQ6      -0.123000
     10 C10         -2.7500     1.2970     2.2820 ca         1 TQ6      -0.065000
     11 N11          0.0140    -2.2180     6.1510 nv         1 TQ6      -1.054900
     12 N12          2.2880     0.2310     3.1530 nv         1 TQ6      -1.067900
     13 S21          1.0480     2.1160     1.1410 ss         1 TQ6       0.022000
     14 C22          0.7430     1.4380    -0.4890 ca         1 TQ6      -0.187000
     15 C23          0.8890     2.2610    -1.6180 ca         1 TQ6      -0.026500
     16 C24          0.6540     1.7420    -2.9020 ca         1 TQ6      -0.185500
     17 C25          0.2750     0.3980    -3.0760 ca         1 TQ6       0.338000
     18 C26          0.1330    -0.4210    -1.9390 ca         1 TQ6      -0.185500
     19 C27          0.3680     0.0920    -0.6520 ca         1 TQ6      -0.026500
     20 C32         -1.4060    -1.3130    -6.0830 c6         1 TQ6       0.146100
     21 C33         -0.8960    -1.2540    -4.6110 c6         1 TQ6       0.166300
     22 N34          0.0400    -0.1050    -4.3790 nh         1 TQ6      -0.796400
     23 C35          1.0900     0.0420    -5.4420 c6         1 TQ6       0.166300
     24 C36          0.4960    -0.0730    -6.8790 c6         1 TQ6       0.146100
     25 O37         -0.2980    -1.2750    -7.0130 os         1 TQ6      -0.442000
     26 HC5         -1.7150     2.5070     0.8360 ha         1 TQ6       0.124000
     27 HC9         -3.5130    -0.0000     3.8210 ha         1 TQ6       0.132000
     28 H10         -3.7370     1.6250     1.9620 ha         1 TQ6       0.114000
     29 H111         0.8920    -2.7080     6.3000 hn         1 TQ6       0.487000
     30 H112        -0.8360    -2.7090     6.4160 hn         1 TQ6       0.487000
     31 H121         3.0600    -0.3600     3.4490 hn         1 TQ6       0.500000
     32 H122         2.3660     0.6590     2.2390 hn         1 TQ6       0.500000
     33 H23          1.1790     3.3040    -1.5010 ha         1 TQ6       0.124000
     34 H24          0.7540     2.3930    -3.7640 ha         1 TQ6       0.117000
     35 H26         -0.1470    -1.4640    -2.0440 ha         1 TQ6       0.117000
     36 H27          0.2610    -0.5590     0.2130 ha         1 TQ6       0.124000
     37 H322        -2.0730    -0.4610    -6.2810 h1         1 TQ6       0.054950
     38 H331        -0.3920    -2.2030    -4.3750 h1         1 TQ6       0.050450
     39 H332        -1.7700    -1.1730    -3.9480 h1         1 TQ6       0.050450
     40 H351         1.6010     1.0120    -5.3600 h1         1 TQ6       0.050450
     41 H352         1.8570    -0.7360    -5.3150 h1         1 TQ6       0.050450
     42 H361         1.3090    -0.0940    -7.6180 h1         1 TQ6       0.054950
     43 H362        -0.1350     0.8020    -7.0930 h1         1 TQ6       0.054950
     44 H321        -1.9800    -2.2370    -6.2420 h1         1 TQ6       0.054950
@<TRIPOS>BOND
     1     1     2 ar  
     2     1     7 ar  
     3     1    12 1   
     4     2     3 ar  
     5     3     4 ar  
     6     3    11 1   
     7     4     8 ar  
     8     5     6 ar  
     9     5    10 ar  
    10     5    26 1   
    11     6     7 ar  
    12     6    13 1   
    13     7     8 ar  
    14     8     9 ar  
    15     9    10 ar  
    16     9    27 1   
    17    10    28 1   
    18    11    29 1   
    19    11    30 1   
    20    12    31 1   
    21    12    32 1   
    22    13    14 1   
    23    14    15 ar  
    24    14    19 ar  
    25    15    16 ar  
    26    15    33 1   
    27    16    17 ar  
    28    16    34 1   
    29    17    18 ar  
    30    17    22 1   
    31    18    19 ar  
    32    18    35 1   
    33    19    36 1   
    34    20    21 1   
    35    20    25 1   
    36    20    37 1   
    37    20    44 1   
    38    21    22 1   
    39    21    38 1   
    40    21    39 1   
    41    22    23 1   
    42    23    24 1   
    43    23    40 1   
    44    23    41 1   
    45    24    25 1   
    46    24    42 1   
    47    24    43 1   
@<TRIPOS>SUBSTRUCTURE
     1 TQ6         1 TEMP              0 ****  ****    0 ROOT
