@<TRIPOS>MOLECULE
TQ6
   44    47     1     0     0
SMALL
bcc


@<TRIPOS>ATOM
      1 C1           1.0590    -0.2460     4.1340 ca         1 TQ6       0.768200
      2 N2           0.9330    -0.4220     5.4330 nb         1 TQ6      -0.880000
      3 C3          -0.2860    -0.3050     5.9840 ca         1 TQ6       0.948900
      4 N4          -1.4100    -0.0790     5.3420 nb         1 TQ6      -0.824000
      5 C5          -1.2590     0.7310     1.2810 ca         1 TQ6      -0.171000
      6 C6          -0.0700     0.4750     1.9300 ca         1 TQ6       0.090900
      7 C7          -0.0720     0.1420     3.3130 ca         1 TQ6      -0.330600
      8 C8          -1.3100     0.1470     4.0150 ca         1 TQ6       0.498600
      9 C9          -2.5060     0.3990     3.3110 ca         1 TQ6      -0.206300
     10 C10         -2.4740     0.6720     1.9710 ca         1 TQ6      -0.083000
     11 N11         -0.3330    -0.4250     7.3310 nv         1 TQ6      -0.944500
     12 N12          2.2900    -0.4450     3.6440 nv         1 TQ6      -0.957500
     13 S21          1.4570     0.6760     1.0320 ss         1 TQ6      -0.231800
     14 C22          0.9790     0.4700    -0.6520 ca         1 TQ6      -0.060100
     15 C23          0.9560     1.5660    -1.5090 ca         1 TQ6      -0.044500
     16 C24          0.6290     1.4130    -2.8430 ca         1 TQ6      -0.203500
     17 C25          0.2990     0.1540    -3.3730 ca         1 TQ6       0.199600
     18 C26          0.3400    -0.9450    -2.4960 ca         1 TQ6      -0.203500
     19 C27          0.6780    -0.7860    -1.1650 ca         1 TQ6      -0.044500
     20 C32         -1.2550    -1.1300    -6.4890 c6         1 TQ6       0.122900
     21 C33         -0.4980    -1.2800    -5.1820 c6         1 TQ6       0.166300
     22 N34         -0.0790     0.0210    -4.6960 nh         1 TQ6      -0.658000
     23 C35          0.6320     0.7870    -5.7120 c6         1 TQ6       0.166300
     24 C36         -0.1790     0.8520    -6.9900 c6         1 TQ6       0.122900
     25 O37         -0.5110    -0.4330    -7.4600 os         1 TQ6      -0.395600
     26 HC5         -1.2630     0.9900     0.2320 ha         1 TQ6       0.142000
     27 HC9         -3.4390     0.3760     3.8590 ha         1 TQ6       0.150000
     28 H10         -3.3930     0.8700     1.4350 ha         1 TQ6       0.132000
     29 H111         0.4600    -0.8270     7.8000 hn         1 TQ6       0.431800
     30 H112        -1.2300    -0.5800     7.7590 hn         1 TQ6       0.431800
     31 H121         2.9780    -0.8110     4.2820 hn         1 TQ6       0.444800
     32 H122         2.4640    -0.5790     2.6630 hn         1 TQ6       0.444800
     33 H23          1.1830     2.5550    -1.1310 ha         1 TQ6       0.142000
     34 H24          0.6020     2.2970    -3.4640 ha         1 TQ6       0.135000
     35 H26          0.1290    -1.9450    -2.8470 ha         1 TQ6       0.135000
     36 H27          0.7110    -1.6560    -0.5200 ha         1 TQ6       0.142000
     37 H322        -2.2070    -0.6160    -6.2950 h1         1 TQ6       0.054950
     38 H331         0.3570    -1.9600    -5.3130 h1         1 TQ6       0.050450
     39 H332        -1.1770    -1.7440    -4.4660 h1         1 TQ6       0.050450
     40 H351         0.8080     1.8050    -5.3750 h1         1 TQ6       0.050450
     41 H352         1.6130     0.3350    -5.9150 h1         1 TQ6       0.050450
     42 H361         0.4050     1.3480    -7.7670 h1         1 TQ6       0.054950
     43 H362        -1.0870     1.4470    -6.8170 h1         1 TQ6       0.054950
     44 H321        -1.4830    -2.1180    -6.8920 h1         1 TQ6       0.054950
@<TRIPOS>BOND
     1     1     2 ar  
     2     1     7 ar  
     3     1    12 1   
     4     2     3 ar  
     5     3     4 ar  
     6     3    11 1   
     7     4     8 ar  
     8     5     6 ar  
     9     5    10 ar  
    10     5    26 1   
    11     6     7 ar  
    12     6    13 1   
    13     7     8 ar  
    14     8     9 ar  
    15     9    10 ar  
    16     9    27 1   
    17    10    28 1   
    18    11    29 1   
    19    11    30 1   
    20    12    31 1   
    21    12    32 1   
    22    13    14 1   
    23    14    15 ar  
    24    14    19 ar  
    25    15    16 ar  
    26    15    33 1   
    27    16    17 ar  
    28    16    34 1   
    29    17    18 ar  
    30    17    22 1   
    31    18    19 ar  
    32    18    35 1   
    33    19    36 1   
    34    20    21 1   
    35    20    25 1   
    36    20    37 1   
    37    20    44 1   
    38    21    22 1   
    39    21    38 1   
    40    21    39 1   
    41    22    23 1   
    42    23    24 1   
    43    23    40 1   
    44    23    41 1   
    45    24    25 1   
    46    24    42 1   
    47    24    43 1   
@<TRIPOS>SUBSTRUCTURE
     1 TQ6         1 TEMP              0 ****  ****    0 ROOT
