@<TRIPOS>MOLECULE
TQ7
   39    41     1     0     0
SMALL
abcg2


@<TRIPOS>ATOM
      1 C4          18.9080    38.9470     4.1960 cc         1 TQ7      -0.106000
      2 C5          17.9190    38.3390     3.4840 cd         1 TQ7      -0.191900
      3 C6          21.2880    41.6350     1.5720 c3         1 TQ7       0.213300
      4 C7          21.8680    42.3200     2.7920 ca         1 TQ7      -0.106300
      5 C8          21.2850    43.4360     3.3780 ca         1 TQ7      -0.096500
      6 C9          21.8520    44.0160     4.5090 ca         1 TQ7      -0.112000
      7 C10         23.0010    43.4810     5.0690 ca         1 TQ7      -0.103500
      8 C11         23.5820    42.3550     4.4960 ca         1 TQ7      -0.112000
      9 C12         23.0190    41.7820     3.3680 ca         1 TQ7      -0.096500
     10 C13         22.2130    41.6570     0.3650 ca         1 TQ7      -0.106300
     11 C14         23.1980    42.6220     0.1930 ca         1 TQ7      -0.096500
     12 C15         23.9880    42.6270    -0.9500 ca         1 TQ7      -0.112000
     13 O           17.7990    41.7260     0.7470 o          1 TQ7      -0.599100
     14 C1          18.8200    41.4510     1.3660 c          1 TQ7       0.635700
     15 C2          18.7620    40.3390     2.3400 cd         1 TQ7      -0.291600
     16 S           17.5430    39.1580     2.0300 ss         1 TQ7       0.356000
     17 BR          17.0080    36.7900     3.9480 br         1 TQ7      -0.033100
     18 C3          19.3870    40.1030     3.5330 cc         1 TQ7      -0.099000
     19 N           19.9700    42.1400     1.1950 n          1 TQ7      -0.393800
     20 C           19.9060    43.3180     0.3440 c3         1 TQ7       0.084300
     21 C18         22.0320    40.6950    -0.6250 ca         1 TQ7      -0.096500
     22 C17         22.8190    40.6960    -1.7680 ca         1 TQ7      -0.112000
     23 C16         23.8000    41.6660    -1.9330 ca         1 TQ7      -0.103500
     24 H1          19.2780    38.5990     5.1490 ha         1 TQ7       0.147000
     25 H2          21.1650    40.5800     1.8250 h1         1 TQ7       0.076700
     26 H3          20.3780    43.8620     2.9700 ha         1 TQ7       0.119250
     27 H4          21.3850    44.8870     4.9520 ha         1 TQ7       0.115500
     28 H5          23.4400    43.9320     5.9500 ha         1 TQ7       0.115000
     29 H6          24.4730    41.9220     4.9320 ha         1 TQ7       0.115500
     30 H7          23.4770    40.9030     2.9290 ha         1 TQ7       0.119250
     31 H8          23.3560    43.3800     0.9500 ha         1 TQ7       0.119250
     32 H9          24.7500    43.3860    -1.0710 ha         1 TQ7       0.115500
     33 H10         20.1530    40.7390     3.9550 ha         1 TQ7       0.147000
     34 H11         20.7900    43.9290     0.5020 h1         1 TQ7       0.046700
     35 H12         19.8570    43.0590    -0.7150 h1         1 TQ7       0.046700
     36 H13         19.0350    43.9180     0.5950 h1         1 TQ7       0.046700
     37 H14         21.2670    39.9370    -0.5020 ha         1 TQ7       0.119250
     38 H15         22.6670    39.9400    -2.5270 ha         1 TQ7       0.115500
     39 H16         24.4170    41.6690    -2.8230 ha         1 TQ7       0.115000
@<TRIPOS>BOND
     1     1     2 2   
     2     1    18 1   
     3     1    24 1   
     4     2    16 1   
     5     2    17 1   
     6     3     4 1   
     7     3    10 1   
     8     3    19 1   
     9     3    25 1   
    10     4     5 ar  
    11     4     9 ar  
    12     5     6 ar  
    13     5    26 1   
    14     6     7 ar  
    15     6    27 1   
    16     7     8 ar  
    17     7    28 1   
    18     8     9 ar  
    19     8    29 1   
    20     9    30 1   
    21    10    11 ar  
    22    10    21 ar  
    23    11    12 ar  
    24    11    31 1   
    25    12    23 ar  
    26    12    32 1   
    27    13    14 2   
    28    14    15 1   
    29    14    19 1   
    30    15    16 1   
    31    15    18 2   
    32    18    33 1   
    33    19    20 1   
    34    20    34 1   
    35    20    35 1   
    36    20    36 1   
    37    21    22 ar  
    38    21    37 1   
    39    22    23 ar  
    40    22    38 1   
    41    23    39 1   
@<TRIPOS>SUBSTRUCTURE
     1 TQ7         1 TEMP              0 ****  ****    0 ROOT
