@<TRIPOS>MOLECULE
TQ7
   39    41     1     0     0
SMALL
No Charge or Current Charge


@<TRIPOS>ATOM
      1 C4          18.8420    39.0290     4.1940 cc         1 TQ7      -0.106000
      2 C5          17.8280    38.3270     3.6050 cd         1 TQ7      -0.191900
      3 C6          21.2330    41.6660     1.5560 c3         1 TQ7       0.213300
      4 C7          21.8830    42.3050     2.7980 ca         1 TQ7      -0.106300
      5 C8          21.3150    43.4150     3.4670 ca         1 TQ7      -0.096500
      6 C9          21.9380    43.9570     4.6050 ca         1 TQ7      -0.112000
      7 C10         23.1300    43.3970     5.0910 ca         1 TQ7      -0.103500
      8 C11         23.6980    42.2900     4.4400 ca         1 TQ7      -0.112000
      9 C12         23.0760    41.7470     3.3030 ca         1 TQ7      -0.096500
     10 C13         22.1780    41.6810     0.3460 ca         1 TQ7      -0.106300
     11 C14         23.0770    42.7480     0.1200 ca         1 TQ7      -0.096500
     12 C15         23.9260    42.7380    -1.0010 ca         1 TQ7      -0.112000
     13 O           17.8550    41.5170     0.3660 o          1 TQ7      -0.599100
     14 C1          18.7350    41.3480     1.2000 c          1 TQ7       0.635700
     15 C2          18.5980    40.2710     2.2200 cd         1 TQ7      -0.291600
     16 S           17.3380    39.0300     2.0540 ss         1 TQ7       0.356000
     17 Br          16.9390    36.8050     4.2730 br         1 TQ7      -0.033100
     18 C3          19.2710    40.1350     3.4210 cc         1 TQ7      -0.099000
     19 N           19.8800    42.1850     1.2070 n          1 TQ7      -0.393800
     20 C           19.8440    43.4300     0.4000 c3         1 TQ7       0.084300
     21 C18         22.1420    40.6110    -0.5720 ca         1 TQ7      -0.096500
     22 C17         22.9920    40.6030    -1.6920 ca         1 TQ7      -0.112000
     23 C16         23.8850    41.6660    -1.9070 ca         1 TQ7      -0.103500
     24 H1          19.2720    38.7890     5.1630 ha         1 TQ7       0.147000
     25 H2          21.1270    40.6020     1.7940 h1         1 TQ7       0.076700
     26 H3          20.3880    43.8630     3.1200 ha         1 TQ7       0.119250
     27 H4          21.4940    44.8110     5.1120 ha         1 TQ7       0.115500
     28 H5          23.6110    43.8170     5.9720 ha         1 TQ7       0.115000
     29 H6          24.6200    41.8530     4.8160 ha         1 TQ7       0.115500
     30 H7          23.5270    40.8880     2.8090 ha         1 TQ7       0.119250
     31 H8          23.1190    43.5890     0.8080 ha         1 TQ7       0.119250
     32 H9          24.6150    43.5630    -1.1670 ha         1 TQ7       0.115500
     33 H10         20.0300    40.8100     3.7990 ha         1 TQ7       0.147000
     34 H11         20.6660    44.0970     0.6880 h1         1 TQ7       0.046700
     35 H12         19.9370    43.1850    -0.6660 h1         1 TQ7       0.046700
     36 H13         18.8960    43.9570     0.5670 h1         1 TQ7       0.046700
     37 H14         21.4520    39.7840    -0.4200 ha         1 TQ7       0.119250
     38 H15         22.9560    39.7730    -2.3950 ha         1 TQ7       0.115500
     39 H16         24.5420    41.6590    -2.7740 ha         1 TQ7       0.115000
@<TRIPOS>BOND
     1     1     2 2   
     2     1    18 1   
     3     1    24 1   
     4     2    16 1   
     5     2    17 1   
     6     3     4 1   
     7     3    10 1   
     8     3    19 1   
     9     3    25 1   
    10     4     5 ar  
    11     4     9 ar  
    12     5     6 ar  
    13     5    26 1   
    14     6     7 ar  
    15     6    27 1   
    16     7     8 ar  
    17     7    28 1   
    18     8     9 ar  
    19     8    29 1   
    20     9    30 1   
    21    10    11 ar  
    22    10    21 ar  
    23    11    12 ar  
    24    11    31 1   
    25    12    23 ar  
    26    12    32 1   
    27    13    14 2   
    28    14    15 1   
    29    14    19 1   
    30    15    16 1   
    31    15    18 2   
    32    18    33 1   
    33    19    20 1   
    34    20    34 1   
    35    20    35 1   
    36    20    36 1   
    37    21    22 ar  
    38    21    37 1   
    39    22    23 ar  
    40    22    38 1   
    41    23    39 1   
@<TRIPOS>SUBSTRUCTURE
     1 TQ7         1 TEMP              0 ****  ****    0 ROOT
