@<TRIPOS>MOLECULE
TQ8
   41    42     1     0     0
SMALL
abcg2


@<TRIPOS>ATOM
      1 C1           0.7560     0.5370    -0.1910 c3         1 TQ8       0.111500
      2 N2           0.8280    -0.7120    -0.9200 n7         1 TQ8      -0.847300
      3 C3           1.9470     1.4320    -0.5860 c3         1 TQ8      -0.015100
      4 C4          -0.5470     1.2900    -0.4710 c          1 TQ8       0.532100
      5 O5          -1.1260     1.1790    -1.5170 o          1 TQ8      -0.477100
      6 C6           3.2530     0.8430    -0.1380 ca         1 TQ8      -0.084300
      7 C7           4.0200     0.0640    -0.9990 ca         1 TQ8      -0.094500
      8 C8           3.7040     1.0460     1.1640 ca         1 TQ8      -0.094500
      9 C9           5.2140    -0.4990    -0.5690 ca         1 TQ8      -0.106000
     10 C10          4.8950     0.4820     1.5990 ca         1 TQ8      -0.106000
     11 C11          5.6540    -0.2930     0.7320 ca         1 TQ8      -0.101000
     12 S12          0.1670    -2.0710    -0.2460 sy         1 TQ8       1.153600
     13 O13          0.2150    -3.0850    -1.2840 o          1 TQ8      -0.529000
     14 O14          0.8410    -2.2860     1.0220 o          1 TQ8      -0.529000
     15 C15         -4.0980    -0.7140     0.5180 ca         1 TQ8      -0.009300
     16 C16         -3.7310    -1.2580    -0.7120 ca         1 TQ8      -0.130500
     17 C17         -2.4480    -1.7240    -0.9360 ca         1 TQ8      -0.014500
     18 C18         -1.5170    -1.6590     0.0910 ca         1 TQ8      -0.326500
     19 C19         -1.8650    -1.1560     1.3390 ca         1 TQ8      -0.014500
     20 C20         -3.1510    -0.6860     1.5410 ca         1 TQ8      -0.130500
     21 C22         -1.0000     2.2010     0.6420 c3         1 TQ8       0.004600
     22 CL          -2.5540     2.9700     0.2860 cl         1 TQ8      -0.223000
     23 H1           0.8360     0.3290     0.8790 h1         1 TQ8       0.093700
     24 H2           0.6010    -0.6270    -1.9060 hn         1 TQ8       0.494000
     25 H31C         1.9350     1.5730    -1.6690 hc         1 TQ8       0.054700
     26 H32C         1.8140     2.4220    -0.1430 hc         1 TQ8       0.054700
     27 H221        -1.0940     1.6330     1.5680 h1         1 TQ8       0.087200
     28 H222        -0.2530     2.9790     0.8140 h1         1 TQ8       0.087200
     29 H7           3.6840    -0.1000    -2.0160 ha         1 TQ8       0.108000
     30 H8           3.1200     1.6550     1.8450 ha         1 TQ8       0.108000
     31 H9           5.8010    -1.1010    -1.2510 ha         1 TQ8       0.114000
     32 H10          5.2310     0.6510     2.6130 ha         1 TQ8       0.114000
     33 H11          6.5850    -0.7310     1.0670 ha         1 TQ8       0.114000
     34 H16         -4.4570    -1.3060    -1.5150 ha         1 TQ8       0.119000
     35 H20         -3.4220    -0.2890     2.5110 ha         1 TQ8       0.119000
     36 H211        -5.8580    -0.4050     1.7160 hc         1 TQ8       0.051367
     37 H212        -5.4260     0.9470     0.6820 hc         1 TQ8       0.051367
     38 H213        -6.1700    -0.4840    -0.0210 hc         1 TQ8       0.051367
     39 H17         -2.1810    -2.1230    -1.9060 ha         1 TQ8       0.134500
     40 H19         -1.1470    -1.1250     2.1480 ha         1 TQ8       0.134500
     41 C21         -5.4650    -0.1430     0.7340 c3         1 TQ8      -0.059800
@<TRIPOS>BOND
     1     1     2 1   
     2     1     3 1   
     3     1     4 1   
     4     1    23 1   
     5     2    12 1   
     6     2    24 1   
     7     3     6 1   
     8     3    25 1   
     9     3    26 1   
    10     4     5 2   
    11     4    21 1   
    12     6     7 ar  
    13     6     8 ar  
    14     7     9 ar  
    15     7    29 1   
    16     8    10 ar  
    17     8    30 1   
    18     9    11 ar  
    19     9    31 1   
    20    10    11 ar  
    21    10    32 1   
    22    11    33 1   
    23    12    13 2   
    24    12    14 2   
    25    12    18 1   
    26    15    16 ar  
    27    15    20 ar  
    28    15    41 1   
    29    16    17 ar  
    30    16    34 1   
    31    17    18 ar  
    32    17    39 1   
    33    18    19 ar  
    34    19    20 ar  
    35    19    40 1   
    36    20    35 1   
    37    21    22 1   
    38    21    27 1   
    39    21    28 1   
    40    36    41 1   
    41    37    41 1   
    42    38    41 1   
@<TRIPOS>SUBSTRUCTURE
     1 TQ8         1 TEMP              0 ****  ****    0 ROOT
