@<TRIPOS>MOLECULE
TQ8
   41    42     1     0     0
SMALL
No Charge or Current Charge


@<TRIPOS>ATOM
      1 C1           0.6420     0.3650    -0.9980 c3         1 TQ8       0.111500
      2 N2           1.0020    -1.0330    -1.4180 n7         1 TQ8      -0.847300
      3 C3           1.9120     1.2530    -1.0150 c3         1 TQ8      -0.015100
      4 C4          -0.4940     1.0290    -1.8430 c          1 TQ8       0.532100
      5 O5          -0.6600     0.7650    -3.0300 o          1 TQ8      -0.477100
      6 C6           2.9600     0.8150     0.0050 ca         1 TQ8      -0.084300
      7 C7           4.1330     0.1550    -0.4130 ca         1 TQ8      -0.094500
      8 C8           2.7630     1.0700     1.3770 ca         1 TQ8      -0.094500
      9 C9           5.0950    -0.2470     0.5300 ca         1 TQ8      -0.106000
     10 C10          3.7250     0.6690     2.3190 ca         1 TQ8      -0.106000
     11 C11          4.8920     0.0100     1.8970 ca         1 TQ8      -0.101000
     12 S12         -0.0910    -2.2980    -1.2960 sy         1 TQ8       1.153600
     13 O13         -0.6310    -2.4680    -2.6450 o          1 TQ8      -0.529000
     14 O14          0.6230    -3.3640    -0.5910 o          1 TQ8      -0.529000
     15 C15         -3.3630    -0.5510     1.4700 ca         1 TQ8      -0.009300
     16 C16         -3.5860    -0.6470     0.0850 ca         1 TQ8      -0.130500
     17 C17         -2.6000    -1.1830    -0.7610 ca         1 TQ8      -0.014500
     18 C18         -1.3720    -1.6210    -0.2220 ca         1 TQ8      -0.326500
     19 C19         -1.1530    -1.5420     1.1680 ca         1 TQ8      -0.014500
     20 C20         -2.1430    -1.0020     2.0060 ca         1 TQ8      -0.130500
     21 C22         -1.3930     2.0260    -1.0880 c3         1 TQ8       0.004600
     22 Cl          -2.9460     2.4450    -1.9530 cl         1 TQ8      -0.223000
     23 H1           0.2910     0.3650     0.0420 h1         1 TQ8       0.093700
     24 H2           1.1970    -1.0580    -2.4190 hn         1 TQ8       0.494000
     25 H31C         2.3360     1.2610    -2.0270 hc         1 TQ8       0.054700
     26 H32C         1.6270     2.2920    -0.8040 hc         1 TQ8       0.054700
     27 H221        -1.6610     1.5970    -0.1150 h1         1 TQ8       0.087200
     28 H222        -0.8310     2.9540    -0.9240 h1         1 TQ8       0.087200
     29 H7           4.2980    -0.0520    -1.4680 ha         1 TQ8       0.108000
     30 H8           1.8630     1.5810     1.7140 ha         1 TQ8       0.108000
     31 H9           5.9980    -0.7570     0.2010 ha         1 TQ8       0.114000
     32 H10          3.5670     0.8680     3.3770 ha         1 TQ8       0.114000
     33 H11          5.6370    -0.3010     2.6260 ha         1 TQ8       0.114000
     34 H16         -4.5260    -0.3020    -0.3410 ha         1 TQ8       0.119000
     35 H20         -1.9600    -0.9350     3.0760 ha         1 TQ8       0.119000
     36 H211        -4.3660    -0.3720     3.3920 hc         1 TQ8       0.051367
     37 H212        -4.3190     1.1290     2.4510 hc         1 TQ8       0.051367
     38 H213        -5.4370    -0.1700     2.0000 hc         1 TQ8       0.051367
     39 H17         -2.7950    -1.2450    -1.8310 ha         1 TQ8       0.134500
     40 H19         -0.2130    -1.8840     1.6000 ha         1 TQ8       0.134500
     41 C21         -4.4300     0.0400     2.3780 c3         1 TQ8      -0.059800
@<TRIPOS>BOND
     1     1     2 1   
     2     1     3 1   
     3     1     4 1   
     4     1    23 1   
     5     2    12 1   
     6     2    24 1   
     7     3     6 1   
     8     3    25 1   
     9     3    26 1   
    10     4     5 2   
    11     4    21 1   
    12     6     7 ar  
    13     6     8 ar  
    14     7     9 ar  
    15     7    29 1   
    16     8    10 ar  
    17     8    30 1   
    18     9    11 ar  
    19     9    31 1   
    20    10    11 ar  
    21    10    32 1   
    22    11    33 1   
    23    12    13 2   
    24    12    14 2   
    25    12    18 1   
    26    15    16 ar  
    27    15    20 ar  
    28    15    41 1   
    29    16    17 ar  
    30    16    34 1   
    31    17    18 ar  
    32    17    39 1   
    33    18    19 ar  
    34    19    20 ar  
    35    19    40 1   
    36    20    35 1   
    37    21    22 1   
    38    21    27 1   
    39    21    28 1   
    40    36    41 1   
    41    37    41 1   
    42    38    41 1   
@<TRIPOS>SUBSTRUCTURE
     1 TQ8         1 TEMP              0 ****  ****    0 ROOT
