@<TRIPOS>MOLECULE
TQ9
   15    14     1     0     0
SMALL
No Charge or Current Charge


@<TRIPOS>ATOM
      1 C91          1.8630    -0.8240     0.3300 c3         1 TQ9       0.001600
      2 C92          0.9480     0.0750    -0.5240 c          1 TQ9       0.557100
      3 C2          -0.5140    -0.3830    -0.6530 c3         1 TQ9      -0.148400
      4 O4           1.3460     1.0990    -1.0710 o          1 TQ9      -0.509100
      5 C5          -1.4410     0.3210     0.3800 c3         1 TQ9      -0.204400
      6 C7          -2.8910    -0.1710     0.2320 c          1 TQ9       0.718000
      7 O8          -3.2290    -1.1600     0.8630 o          1 TQ9      -0.739000
      8 O9          -3.6190     0.4120    -0.5570 o          1 TQ9      -0.739000
      9 Cl           3.5550    -0.1760     0.5890 cl         1 TQ9      -0.280000
     10 H911         1.3990    -0.9570     1.3140 h1         1 TQ9       0.074700
     11 H912         1.9440    -1.8020    -0.1580 h1         1 TQ9       0.074700
     12 H21C        -0.8740    -0.1570    -1.6650 hc         1 TQ9       0.063700
     13 H22C        -0.5700    -1.4620    -0.4620 hc         1 TQ9       0.063700
     14 H51C        -1.0500     0.0530     1.3700 hc         1 TQ9       0.033200
     15 H52C        -1.3810     1.3940     0.1590 hc         1 TQ9       0.033200
@<TRIPOS>BOND
     1     1     2 1   
     2     1     9 1   
     3     1    10 1   
     4     1    11 1   
     5     2     3 1   
     6     2     4 2   
     7     3     5 1   
     8     3    12 1   
     9     3    13 1   
    10     5     6 1   
    11     5    14 1   
    12     5    15 1   
    13     6     7 1   
    14     6     8 1   
@<TRIPOS>SUBSTRUCTURE
     1 TQ9         1 TEMP              0 ****  ****    0 ROOT
