@<TRIPOS>MOLECULE
TQ9
   15    14     1     0     0
SMALL
abcg2


@<TRIPOS>ATOM
      1 C91          2.0290    -0.9490     0.0740 c3         1 TQ9       0.001600
      2 C92          0.9220     0.0850     0.0100 c          1 TQ9       0.557100
      3 C2          -0.4590    -0.5100    -0.0160 c3         1 TQ9      -0.148400
      4 O4           1.1530     1.2660    -0.0160 o          1 TQ9      -0.509100
      5 C5          -1.5840     0.5070    -0.0110 c3         1 TQ9      -0.204400
      6 C7          -2.9990    -0.1020    -0.0260 c          1 TQ9       0.718000
      7 O8          -3.1010    -1.3440    -0.0400 o          1 TQ9      -0.739000
      8 O9          -3.9380     0.7210    -0.0220 o          1 TQ9      -0.739000
      9 CL           3.6470    -0.2160     0.0370 cl         1 TQ9      -0.280000
     10 H911         1.9350    -1.5310     0.9920 h1         1 TQ9       0.074700
     11 H912         1.9420    -1.6410    -0.7640 h1         1 TQ9       0.074700
     12 H21C        -0.5220    -1.1570    -0.8980 hc         1 TQ9       0.063700
     13 H22C        -0.5470    -1.1960     0.8320 hc         1 TQ9       0.063700
     14 H51C        -1.5020     1.1550     0.8670 hc         1 TQ9       0.033200
     15 H52C        -1.4900     1.1750    -0.8720 hc         1 TQ9       0.033200
@<TRIPOS>BOND
     1     1     2 1   
     2     1     9 1   
     3     1    10 1   
     4     1    11 1   
     5     2     3 1   
     6     2     4 2   
     7     3     5 1   
     8     3    12 1   
     9     3    13 1   
    10     5     6 1   
    11     5    14 1   
    12     5    15 1   
    13     6     7 1   
    14     6     8 1   
@<TRIPOS>SUBSTRUCTURE
     1 TQ9         1 TEMP              0 ****  ****    0 ROOT
