@<TRIPOS>MOLECULE
TQA
   71    76     1     0     0
SMALL
No Charge or Current Charge


@<TRIPOS>ATOM
      1 C11         41.3780    24.8540    34.3840 ca         1 TQA      -0.122000
      2 C13         41.2650    22.7050    33.2980 ca         1 TQA      -0.163600
      3 C14         41.0810    21.2560    33.1070 c          1 TQA       0.580600
      4 C16         43.7500    19.4260    31.4550 ca         1 TQA      -0.105000
      5 C17         45.0220    18.9990    31.0510 ca         1 TQA      -0.091000
      6 C19         44.0210    17.7940    29.2000 ca         1 TQA      -0.067000
      7 C18         45.1590    18.1930    29.9150 ca         1 TQA      -0.115000
      8 C21         39.1320    16.8570    29.1380 ca         1 TQA      -0.032000
      9 C22         38.7050    16.7670    27.7950 ca         1 TQA      -0.120000
     10 C03         42.7250    18.1880    29.6080 ca         1 TQA      -0.154600
     11 C04         42.5890    19.0530    30.7380 ca         1 TQA      -0.075300
     12 C07         41.6660    22.2340    30.9680 c5         1 TQA       0.141300
     13 C08         41.6010    23.2720    32.0810 ca         1 TQA      -0.082300
     14 C09         41.8350    24.6530    31.9840 ca         1 TQA      -0.100000
     15 C10         41.7210    25.4440    33.1460 ca         1 TQA      -0.086000
     16 C12         41.1450    23.4660    34.4700 ca         1 TQA      -0.037000
     17 C23         37.4070    16.3200    27.4940 ca         1 TQA      -0.094000
     18 C24         36.5300    15.9510    28.5240 ca         1 TQA      -0.121000
     19 C25         36.9480    16.0080    29.8690 ca         1 TQA      -0.092500
     20 C26         36.0210    15.6700    30.9520 cc         1 TQA       0.341500
     21 C27         35.2810    14.4990    31.0020 cd         1 TQA      -0.158000
     22 C28         35.3390    13.2570    30.1970 ca         1 TQA       0.058000
     23 C29         36.4230    12.9220    29.3620 ca         1 TQA      -0.171000
     24 C30         36.4000    11.7230    28.6340 ca         1 TQA       0.375900
     25 C32         34.3620    11.1390    29.5210 ca         1 TQA       0.489900
     26 C34         32.6320     9.6240    30.5430 c          1 TQA       0.617100
     27 C35         33.0990     9.8810    31.9780 c3         1 TQA      -0.178100
     28 C37         34.2920    12.3200    30.2770 ca         1 TQA      -0.206000
     29 C39         34.8510    15.8800    32.6850 cd         1 TQA       0.508800
     30 C41         32.9300    15.1840    34.6880 c3         1 TQA      -0.012100
     31 C43         38.2400    16.4890    30.1630 ca         1 TQA      -0.129000
     32 N06         41.3190    21.0040    31.7470 n          1 TQA      -0.422800
     33 N20         40.4190    17.3230    29.5250 ns         1 TQA      -0.147000
     34 N31         35.3810    10.8380    28.7010 nb         1 TQA      -0.714000
     35 N33         33.3740    10.1530    29.5130 ns         1 TQA      -0.335900
     36 N38         34.5030    14.6640    32.1440 na         1 TQA      -0.295500
     37 N42         35.7680    16.5170    31.9930 nc         1 TQA      -0.649000
     38 O01         41.6470    17.5140    27.5840 o          1 TQA      -0.572100
     39 O15         40.7850    20.4330    33.9620 o          1 TQA      -0.537000
     40 O36         31.6700     8.9070    30.3080 o          1 TQA      -0.572100
     41 S40         34.1330    16.4940    34.1790 ss         1 TQA      -0.268300
     42 H1          41.2930    25.4720    35.2750 ha         1 TQA       0.119000
     43 H2          43.6740    20.0670    32.3300 ha         1 TQA       0.126000
     44 H3          45.9030    19.3040    31.6120 ha         1 TQA       0.118000
     45 H4          44.1470    17.1500    28.3320 ha         1 TQA       0.128000
     46 H5          46.1460    17.8680    29.5930 ha         1 TQA       0.120000
     47 H6          39.3520    17.0550    26.9720 ha         1 TQA       0.142000
     48 H7          40.5690    19.7170    30.3130 h1         1 TQA       0.072200
     49 H8          40.7690    18.9670    31.9030 h1         1 TQA       0.072200
     50 H9          40.9320    22.4380    30.1770 h1         1 TQA       0.066200
     51 H10         42.6700    22.1710    30.5280 h1         1 TQA       0.066200
     52 H11         42.0990    25.1050    31.0300 ha         1 TQA       0.121000
     53 H12         41.8990    26.5160    33.0890 ha         1 TQA       0.116000
     54 H13         40.8810    22.9990    35.4170 ha         1 TQA       0.135000
     55 H14         37.0790    16.2660    26.4580 ha         1 TQA       0.116000
     56 H15         35.5220    15.6200    28.2800 ha         1 TQA       0.119000
     57 H16         37.3020    13.5500    29.2830 ha         1 TQA       0.144000
     58 H17         37.2320    11.4550    27.9830 h4         1 TQA       0.028100
     59 H18         32.7140     9.1240    32.6710 hc         1 TQA       0.063367
     60 H19         34.1910     9.9660    32.0250 hc         1 TQA       0.063367
     61 H20         32.7380    10.8650    32.2920 hc         1 TQA       0.063367
     62 H21         33.4160    12.5210    30.8830 ha         1 TQA       0.125000
     63 H22         32.4310    15.4890    35.6160 h1         1 TQA       0.069033
     64 H23         32.1730    15.0450    33.9070 h1         1 TQA       0.069033
     65 H24         33.4570    14.2370    34.8640 h1         1 TQA       0.069033
     66 H25         38.5520    16.5670    31.2030 ha         1 TQA       0.129000
     67 H26         40.5280    17.4310    30.5240 hn         1 TQA       0.160000
     68 H27         33.1230     9.8290    28.5900 hn         1 TQA       0.171000
     69 H28         33.8450    14.0080    32.5410 hn         1 TQA       0.356000
     70 C05         41.2380    19.6450    31.1780 c3         1 TQA       0.150300
     71 C02         41.5580    17.6500    28.7990 c          1 TQA       0.616700
@<TRIPOS>BOND
     1     1    15 ar  
     2     1    16 ar  
     3     1    42 1   
     4     2     3 1   
     5     2    13 ar  
     6     2    16 ar  
     7     3    32 1   
     8     3    39 2   
     9     4     5 ar  
    10     4    11 ar  
    11     4    43 1   
    12     5     7 ar  
    13     5    44 1   
    14     6     7 ar  
    15     6    10 ar  
    16     6    45 1   
    17     7    46 1   
    18     8     9 ar  
    19     8    31 ar  
    20     8    33 1   
    21     9    17 ar  
    22     9    47 1   
    23    10    11 ar  
    24    10    71 1   
    25    11    70 1   
    26    12    13 1   
    27    12    32 1   
    28    12    50 1   
    29    12    51 1   
    30    13    14 ar  
    31    14    15 ar  
    32    14    52 1   
    33    15    53 1   
    34    16    54 1   
    35    17    18 ar  
    36    17    55 1   
    37    18    19 ar  
    38    18    56 1   
    39    19    20 1   
    40    19    31 ar  
    41    20    21 2   
    42    20    37 1   
    43    21    22 1   
    44    21    36 1   
    45    22    23 ar  
    46    22    28 ar  
    47    23    24 ar  
    48    23    57 1   
    49    24    34 ar  
    50    24    58 1   
    51    25    28 ar  
    52    25    34 ar  
    53    25    35 1   
    54    26    27 1   
    55    26    35 1   
    56    26    40 2   
    57    27    59 1   
    58    27    60 1   
    59    27    61 1   
    60    28    62 1   
    61    29    36 1   
    62    29    37 2   
    63    29    41 1   
    64    30    41 1   
    65    30    63 1   
    66    30    64 1   
    67    30    65 1   
    68    31    66 1   
    69    32    70 1   
    70    33    67 1   
    71    33    71 1   
    72    35    68 1   
    73    36    69 1   
    74    38    71 2   
    75    48    70 1   
    76    49    70 1   
@<TRIPOS>SUBSTRUCTURE
     1 TQA         1 TEMP              0 ****  ****    0 ROOT
