@<TRIPOS>MOLECULE
TQA
   71    76     1     0     0
SMALL
bcc


@<TRIPOS>ATOM
      1 C11         41.6510    25.8370    33.2200 ca         1 TQA      -0.140000
      2 C13         41.3820    23.5500    32.6450 ca         1 TQA      -0.163600
      3 C14         41.0250    22.1200    32.7550 c          1 TQA       0.723100
      4 C16         43.5950    19.7940    31.8520 ca         1 TQA      -0.123000
      5 C17         44.7920    19.0990    31.7730 ca         1 TQA      -0.109000
      6 C19         43.7920    17.5680    30.2300 ca         1 TQA      -0.085000
      7 C18         44.8950    17.9820    30.9560 ca         1 TQA      -0.133000
      8 C21         39.1380    16.8450    29.7680 ca         1 TQA       0.060600
      9 C22         38.6820    16.9690    28.4560 ca         1 TQA      -0.138000
     10 C03         42.5800    18.2470    30.3310 ca         1 TQA      -0.154600
     11 C04         42.4730    19.3860    31.1360 ca         1 TQA      -0.075300
     12 C07         41.9600    22.4960    30.6290 c5         1 TQA       0.141300
     13 C08         41.9340    23.7800    31.3960 ca         1 TQA      -0.082300
     14 C09         42.3580    25.0470    31.0360 ca         1 TQA      -0.118000
     15 C10         42.2080    26.0730    31.9630 ca         1 TQA      -0.104000
     16 C12         41.2290    24.5640    33.5760 ca         1 TQA      -0.055000
     17 C23         37.4560    16.4170    28.1120 ca         1 TQA      -0.112000
     18 C24         36.6810    15.7420    29.0390 ca         1 TQA      -0.139000
     19 C25         37.1370    15.6040    30.3500 ca         1 TQA      -0.092500
     20 C26         36.3510    14.9020    31.3670 cc         1 TQA       0.406800
     21 C27         35.5660    13.7770    31.2420 cd         1 TQA      -0.172600
     22 C28         35.3140    12.8530    30.1470 ca         1 TQA       0.058000
     23 C29         36.3160    12.5250    29.2330 ca         1 TQA      -0.254300
     24 C30         36.0050    11.6590    28.2040 ca         1 TQA       0.441200
     25 C32         33.8750    11.3600    28.9450 ca         1 TQA       0.555200
     26 C34         31.7020    10.2340    29.5470 c          1 TQA       0.684100
     27 C35         31.8920    10.3790    31.0320 c3         1 TQA      -0.178100
     28 C37         34.0610    12.2690    29.9830 ca         1 TQA      -0.289300
     29 C39         35.4960    14.5600    33.2940 cd         1 TQA       0.508800
     30 C41         34.0850    13.3380    35.3260 c3         1 TQA      -0.060000
     31 C43         38.3580    16.1680    30.7030 ca         1 TQA      -0.147000
     32 N06         41.3880    21.5570    31.5710 n          1 TQA      -0.489800
     33 N20         40.3440    17.3920    30.2270 ns         1 TQA      -0.473100
     34 N31         34.8210    11.0780    28.0580 nb         1 TQA      -0.714000
     35 N33         32.6620    10.7200    28.7000 ns         1 TQA      -0.569400
     36 N38         35.0140    13.5950    32.4900 na         1 TQA      -0.295900
     37 N42         36.2990    15.3670    32.6500 nc         1 TQA      -0.649000
     38 O01         41.5480    17.5800    28.3020 o          1 TQA      -0.572100
     39 O15         40.5100    21.5490    33.7000 o          1 TQA      -0.612500
     40 O36         30.7250     9.6810    29.0780 o          1 TQA      -0.572100
     41 S40         35.1310    14.7700    34.9850 ss         1 TQA      -0.220400
     42 H1          41.5480    26.6560    33.9190 ha         1 TQA       0.137000
     43 H2          43.5410    20.6770    32.4760 ha         1 TQA       0.144000
     44 H3          45.6470    19.4370    32.3440 ha         1 TQA       0.136000
     45 H4          43.8650    16.6990    29.5880 ha         1 TQA       0.146000
     46 H5          45.8280    17.4390    30.8820 ha         1 TQA       0.138000
     47 H6          39.2540    17.4990    27.7120 ha         1 TQA       0.160000
     48 H7          40.6350    20.1330    30.2860 h1         1 TQA       0.072200
     49 H8          40.5280    19.7440    31.9900 h1         1 TQA       0.072200
     50 H9          41.3620    22.5450    29.7140 h1         1 TQA       0.066200
     51 H10         42.9760    22.2070    30.3430 h1         1 TQA       0.066200
     52 H11         42.7930    25.2410    30.0640 ha         1 TQA       0.139000
     53 H12         42.5300    27.0730    31.7050 ha         1 TQA       0.134000
     54 H13         40.7960    24.3710    34.5490 ha         1 TQA       0.153000
     55 H14         37.0970    16.5300    27.0970 ha         1 TQA       0.134000
     56 H15         35.7190    15.3400    28.7510 ha         1 TQA       0.137000
     57 H16         37.3140    12.9300    29.3200 ha         1 TQA       0.162000
     58 H17         36.7550    11.4070    27.4640 h4         1 TQA       0.028100
     59 H18         31.2790     9.6330    31.5320 hc         1 TQA       0.063367
     60 H19         32.9270    10.2570    31.3460 hc         1 TQA       0.063367
     61 H20         31.5530    11.3600    31.3680 hc         1 TQA       0.063367
     62 H21         33.2400    12.5550    30.6240 ha         1 TQA       0.143000
     63 H22         33.8350    13.3980    36.3830 h1         1 TQA       0.069033
     64 H23         33.1610    13.3690    34.7520 h1         1 TQA       0.069033
     65 H24         34.6150    12.4040    35.1490 h1         1 TQA       0.069033
     66 H25         38.7130    16.0670    31.7220 ha         1 TQA       0.147000
     67 H26         40.4480    17.4130    31.2310 hn         1 TQA       0.326500
     68 H27         32.5410    10.4340    27.7370 hn         1 TQA       0.337500
     69 H28         34.4220    12.8230    32.7600 hn         1 TQA       0.305700
     70 C05         41.1820    20.1780    31.2310 c3         1 TQA       0.150300
     71 C02         41.4450    17.7220    29.5050 c          1 TQA       0.683700
@<TRIPOS>BOND
     1     1    15 ar  
     2     1    16 ar  
     3     1    42 1   
     4     2     3 1   
     5     2    13 ar  
     6     2    16 ar  
     7     3    32 1   
     8     3    39 2   
     9     4     5 ar  
    10     4    11 ar  
    11     4    43 1   
    12     5     7 ar  
    13     5    44 1   
    14     6     7 ar  
    15     6    10 ar  
    16     6    45 1   
    17     7    46 1   
    18     8     9 ar  
    19     8    31 ar  
    20     8    33 1   
    21     9    17 ar  
    22     9    47 1   
    23    10    11 ar  
    24    10    71 1   
    25    11    70 1   
    26    12    13 1   
    27    12    32 1   
    28    12    50 1   
    29    12    51 1   
    30    13    14 ar  
    31    14    15 ar  
    32    14    52 1   
    33    15    53 1   
    34    16    54 1   
    35    17    18 ar  
    36    17    55 1   
    37    18    19 ar  
    38    18    56 1   
    39    19    20 1   
    40    19    31 ar  
    41    20    21 2   
    42    20    37 1   
    43    21    22 1   
    44    21    36 1   
    45    22    23 ar  
    46    22    28 ar  
    47    23    24 ar  
    48    23    57 1   
    49    24    34 ar  
    50    24    58 1   
    51    25    28 ar  
    52    25    34 ar  
    53    25    35 1   
    54    26    27 1   
    55    26    35 1   
    56    26    40 2   
    57    27    59 1   
    58    27    60 1   
    59    27    61 1   
    60    28    62 1   
    61    29    36 1   
    62    29    37 2   
    63    29    41 1   
    64    30    41 1   
    65    30    63 1   
    66    30    64 1   
    67    30    65 1   
    68    31    66 1   
    69    32    70 1   
    70    33    67 1   
    71    33    71 1   
    72    35    68 1   
    73    36    69 1   
    74    38    71 2   
    75    48    70 1   
    76    49    70 1   
@<TRIPOS>SUBSTRUCTURE
     1 TQA         1 TEMP              0 ****  ****    0 ROOT
