@<TRIPOS>MOLECULE
TQB
   35    37     1     0     0
SMALL
abcg2


@<TRIPOS>ATOM
      1 C1          37.7540    40.0160    11.9000 c3         1 TQB       0.209600
      2 C2          36.3810    40.7500    13.8230 cc         1 TQB       0.787800
      3 C3          34.9250    41.9910    15.1560 c          1 TQB       0.726400
      4 C7          35.2460    45.3330    18.8650 ca         1 TQB      -0.102000
      5 C8          35.6440    45.7470    17.6010 ca         1 TQB      -0.106000
      6 C9          35.8950    44.8080    16.6090 ca         1 TQB      -0.092500
      7 C10         37.2760    41.9710    15.7250 ca         1 TQB       0.143600
      8 C11         38.3140    42.3380    16.5880 ca         1 TQB      -0.169000
      9 C12         39.5270    41.6960    16.4850 ca         1 TQB       0.179000
     10 C13         39.7450    40.6720    15.5690 ca         1 TQB      -0.159000
     11 C14         38.7290    40.3460    14.6980 ca         1 TQB      -0.032000
     12 C15         37.5030    41.0210    14.7160 ca         1 TQB      -0.276900
     13 CL          40.8050    42.1500    17.5530 cl         1 TQB      -0.188000
     14 N           36.5330    40.0470    12.6890 nh         1 TQB      -0.736600
     15 C           35.3520    39.6010    11.9740 c3         1 TQB       0.209600
     16 N2          36.0130    42.4950    15.8730 n          1 TQB      -0.245200
     17 O           33.7990    42.3530    15.4500 o          1 TQB      -0.516000
     18 N1          35.1740    41.1590    14.1180 nd         1 TQB      -0.763100
     19 C4          35.7460    43.4590    16.8900 ca         1 TQB       0.033600
     20 C6          35.1040    43.9790    19.1410 ca         1 TQB      -0.106000
     21 C5          35.3560    43.0380    18.1540 ca         1 TQB      -0.092500
     22 H1          38.4560    40.7840    12.2110 h1         1 TQB       0.047867
     23 H2          38.2450    39.0430    11.9380 h1         1 TQB       0.047867
     24 H3          37.4960    40.2210    10.8610 h1         1 TQB       0.047867
     25 H5          35.7570    46.8000    17.3840 ha         1 TQB       0.117500
     26 H6          36.2060    45.1210    15.6200 ha         1 TQB       0.125000
     27 H7          38.1630    43.0960    17.3430 ha         1 TQB       0.149000
     28 H8          40.6850    40.1400    15.5400 ha         1 TQB       0.136000
     29 H9          38.8950    39.5330    14.0080 ha         1 TQB       0.123000
     30 H10         34.5900    39.2500    12.6630 h1         1 TQB       0.047867
     31 H11         34.9240    40.3950    11.3570 h1         1 TQB       0.047867
     32 H12         35.6380    38.7750    11.3260 h1         1 TQB       0.047867
     33 H13         34.7950    43.6540    20.1260 ha         1 TQB       0.117500
     34 H14         35.2490    41.9800    18.3600 ha         1 TQB       0.125000
     35 H4          35.0490    46.0660    19.6370 ha         1 TQB       0.115000
@<TRIPOS>BOND
     1     1    14 1   
     2     1    22 1   
     3     1    23 1   
     4     1    24 1   
     5     2    12 1   
     6     2    14 1   
     7     2    18 2   
     8     3    16 1   
     9     3    17 2   
    10     3    18 1   
    11     4     5 ar  
    12     4    20 ar  
    13     4    35 1   
    14     5     6 ar  
    15     5    25 1   
    16     6    19 ar  
    17     6    26 1   
    18     7     8 ar  
    19     7    12 ar  
    20     7    16 1   
    21     8     9 ar  
    22     8    27 1   
    23     9    10 ar  
    24     9    13 1   
    25    10    11 ar  
    26    10    28 1   
    27    11    12 ar  
    28    11    29 1   
    29    14    15 1   
    30    15    30 1   
    31    15    31 1   
    32    15    32 1   
    33    16    19 1   
    34    19    21 ar  
    35    20    21 ar  
    36    20    33 1   
    37    21    34 1   
@<TRIPOS>SUBSTRUCTURE
     1 TQB         1 TEMP              0 ****  ****    0 ROOT
