@<TRIPOS>MOLECULE
TQB
   35    37     1     0     0
SMALL
No Charge or Current Charge


@<TRIPOS>ATOM
      1 C1          37.7130    40.2600    11.6990 c3         1 TQB       0.209600
      2 C2          36.4080    40.8960    13.7000 cc         1 TQB       0.787800
      3 C3          35.1310    42.5970    14.6930 c          1 TQB       0.726400
      4 C7          35.2140    45.3650    19.0000 ca         1 TQB      -0.102000
      5 C8          35.1390    45.8460    17.6840 ca         1 TQB      -0.106000
      6 C9          35.4330    44.9950    16.6040 ca         1 TQB      -0.092500
      7 C10         37.2810    41.9580    15.7400 ca         1 TQB       0.143600
      8 C11         38.3120    42.1330    16.6920 ca         1 TQB      -0.169000
      9 C12         39.4240    41.2830    16.7060 ca         1 TQB       0.179000
     10 C13         39.5330    40.2540    15.7670 ca         1 TQB      -0.159000
     11 C14         38.5460    40.1010    14.7830 ca         1 TQB      -0.032000
     12 C15         37.4340    40.9790    14.7390 ca         1 TQB      -0.276900
     13 Cl          40.6830    41.5070    17.9130 cl         1 TQB      -0.188000
     14 N           36.6010    40.0350    12.6470 nh         1 TQB      -0.736600
     15 C           35.4760    39.2230    12.1380 c3         1 TQB       0.209600
     16 N2          36.0950    42.7810    15.7090 n          1 TQB      -0.245200
     17 O           34.0870    43.2280    14.6520 o          1 TQB      -0.516000
     18 N1          35.3440    41.6470    13.7000 nd         1 TQB      -0.763100
     19 C4          35.8210    43.6570    16.8270 ca         1 TQB       0.033600
     20 C6          35.5770    44.0290    19.2360 ca         1 TQB      -0.106000
     21 C5          35.8720    43.1780    18.1560 ca         1 TQB      -0.092500
     22 H1          38.3930    41.0420    12.0640 h1         1 TQB       0.047867
     23 H2          38.2900    39.3370    11.5600 h1         1 TQB       0.047867
     24 H3          37.3260    40.5770    10.7210 h1         1 TQB       0.047867
     25 H5          34.8520    46.8790    17.4990 ha         1 TQB       0.117500
     26 H6          35.3760    45.3850    15.5900 ha         1 TQB       0.125000
     27 H7          38.2780    42.9330    17.4230 ha         1 TQB       0.149000
     28 H8          40.3900    39.5860    15.7900 ha         1 TQB       0.136000
     29 H9          38.6600    39.2960    14.0600 ha         1 TQB       0.123000
     30 H10         34.8460    38.8720    12.9660 h1         1 TQB       0.047867
     31 H11         34.8540    39.8140    11.4540 h1         1 TQB       0.047867
     32 H12         35.8480    38.3430    11.5970 h1         1 TQB       0.047867
     33 H13         35.6220    43.6490    20.2540 ha         1 TQB       0.117500
     34 H14         36.1240    42.1390    18.3540 ha         1 TQB       0.125000
     35 H4          34.9850    46.0230    19.8360 ha         1 TQB       0.115000
@<TRIPOS>BOND
     1     1    14 1   
     2     1    22 1   
     3     1    23 1   
     4     1    24 1   
     5     2    12 1   
     6     2    14 1   
     7     2    18 2   
     8     3    16 1   
     9     3    17 2   
    10     3    18 1   
    11     4     5 ar  
    12     4    20 ar  
    13     4    35 1   
    14     5     6 ar  
    15     5    25 1   
    16     6    19 ar  
    17     6    26 1   
    18     7     8 ar  
    19     7    12 ar  
    20     7    16 1   
    21     8     9 ar  
    22     8    27 1   
    23     9    10 ar  
    24     9    13 1   
    25    10    11 ar  
    26    10    28 1   
    27    11    12 ar  
    28    11    29 1   
    29    14    15 1   
    30    15    30 1   
    31    15    31 1   
    32    15    32 1   
    33    16    19 1   
    34    19    21 ar  
    35    20    21 ar  
    36    20    33 1   
    37    21    34 1   
@<TRIPOS>SUBSTRUCTURE
     1 TQB         1 TEMP              0 ****  ****    0 ROOT
