@<TRIPOS>MOLECULE
TQC
   27    29     1     0     0
SMALL
abcg2


@<TRIPOS>ATOM
      1 N1          -8.9650    -5.9620   -16.7920 nc         1 TQC      -0.611000
      2 N3          -9.0240    -3.1640   -17.5930 nd         1 TQC      -0.678000
      3 C4         -10.0630    -4.0390   -17.8350 cd         1 TQC       0.557000
      4 C5          -9.4470    -2.0460   -18.1030 cc         1 TQC       0.511300
      5 C6          -8.7770    -0.7340   -18.1390 cy         1 TQC      -0.142000
      6 C7          -9.5080     0.4980   -17.5240 cy         1 TQC      -0.075400
      7 C8          -8.9560     1.3530   -18.6890 cy         1 TQC      -0.090400
      8 N          -11.0010    -6.3490   -17.6010 na         1 TQC      -0.143500
      9 C          -12.3000    -6.1710   -18.2410 c3         1 TQC       0.059900
     10 O          -10.6710    -2.1630   -18.6460 os         1 TQC      -0.109700
     11 C1         -10.5520    -7.5230   -17.0640 cd         1 TQC      -0.213000
     12 C2          -9.2960    -7.2670   -16.5690 cc         1 TQC       0.225900
     13 C3         -10.0080    -5.4260   -17.4160 cd         1 TQC       0.333500
     14 C9          -8.7080     0.0490   -19.4830 cy         1 TQC      -0.075400
     15 N2         -11.0760    -3.4950   -18.4650 nc         1 TQC      -0.398300
     16 H1          -7.7860    -0.8560   -17.7040 hc         1 TQC       0.095700
     17 H2          -9.2260     0.7650   -16.5070 hc         1 TQC       0.062450
     18 H3         -10.5900     0.3830   -17.5830 hc         1 TQC       0.062450
     19 H4          -8.0200     1.8440   -18.4190 hc         1 TQC       0.056200
     20 H5          -9.6280     2.0860   -19.1320 hc         1 TQC       0.056200
     21 H6         -12.8370    -7.1130   -18.1760 h1         1 TQC       0.062367
     22 H7         -12.8650    -5.3920   -17.7340 h1         1 TQC       0.062367
     23 H8         -12.1710    -5.8950   -19.2860 h1         1 TQC       0.062367
     24 H9         -11.1550    -8.4150   -17.0810 h4         1 TQC       0.159000
     25 H10         -8.6260    -7.9490   -16.0710 h4         1 TQC       0.044100
     26 H11         -9.5520    -0.1980   -20.1260 hc         1 TQC       0.062450
     27 H12         -7.7820    -0.0460   -20.0470 hc         1 TQC       0.062450
@<TRIPOS>BOND
     1     1    12 1   
     2     1    13 2   
     3     2     3 1   
     4     2     4 2   
     5     3    13 1   
     6     3    15 2   
     7     4     5 1   
     8     4    10 1   
     9     5     6 1   
    10     5    14 1   
    11     5    16 1   
    12     6     7 1   
    13     6    17 1   
    14     6    18 1   
    15     7    14 1   
    16     7    19 1   
    17     7    20 1   
    18     8     9 1   
    19     8    11 1   
    20     8    13 1   
    21     9    21 1   
    22     9    22 1   
    23     9    23 1   
    24    10    15 1   
    25    11    12 2   
    26    11    24 1   
    27    12    25 1   
    28    14    26 1   
    29    14    27 1   
@<TRIPOS>SUBSTRUCTURE
     1 TQC         1 TEMP              0 ****  ****    0 ROOT
