@<TRIPOS>MOLECULE
TQC
   27    29     1     0     0
SMALL
No Charge or Current Charge


@<TRIPOS>ATOM
      1 N1          -8.9330    -6.0150   -16.7860 nc         1 TQC      -0.611000
      2 N3          -9.0610    -3.1260   -17.5980 nd         1 TQC      -0.678000
      3 C4         -10.0780    -4.0500   -17.8040 cd         1 TQC       0.557000
      4 C5          -9.5570    -2.0210   -18.1060 cc         1 TQC       0.511300
      5 C6          -8.8940    -0.6770   -18.1660 cy         1 TQC      -0.142000
      6 C7          -9.6100     0.6130   -17.6280 cy         1 TQC      -0.075400
      7 C8          -8.6990     1.4000   -18.6260 cy         1 TQC      -0.090400
      8 N          -10.9880    -6.4290   -17.5820 na         1 TQC      -0.143500
      9 C          -12.3140    -6.2680   -18.2080 c3         1 TQC       0.059900
     10 O          -10.8070    -2.1710   -18.6170 os         1 TQC      -0.109700
     11 C1         -10.5010    -7.6150   -17.0570 cd         1 TQC      -0.213000
     12 C2          -9.2520    -7.3260   -16.5830 cc         1 TQC       0.225900
     13 C3          -9.9880    -5.4620   -17.3950 cd         1 TQC       0.333500
     14 C9          -8.7740     0.1160   -19.5160 cy         1 TQC      -0.075400
     15 N2         -11.1430    -3.5260   -18.4100 nc         1 TQC      -0.398300
     16 H1          -7.9190    -0.8430   -17.6900 hc         1 TQC       0.095700
     17 H2          -9.4630     0.8370   -16.5660 hc         1 TQC       0.062450
     18 H3         -10.6840     0.6690   -17.8490 hc         1 TQC       0.062450
     19 H4          -7.6980     1.6350   -18.2440 hc         1 TQC       0.056200
     20 H5          -9.1310     2.3090   -19.0570 hc         1 TQC       0.056200
     21 H6         -12.8500    -7.2250   -18.1940 h1         1 TQC       0.062367
     22 H7         -12.9000    -5.5260   -17.6530 h1         1 TQC       0.062367
     23 H8         -12.1980    -5.9430   -19.2500 h1         1 TQC       0.062367
     24 H9         -11.0540    -8.5480   -17.0570 h4         1 TQC       0.159000
     25 H10         -8.5490    -7.9910   -16.0990 h4         1 TQC       0.044100
     26 H11         -9.6580     0.0600   -20.1630 hc         1 TQC       0.062450
     27 H12         -7.8870    -0.1000   -20.1220 hc         1 TQC       0.062450
@<TRIPOS>BOND
     1     1    12 1   
     2     1    13 2   
     3     2     3 1   
     4     2     4 2   
     5     3    13 1   
     6     3    15 2   
     7     4     5 1   
     8     4    10 1   
     9     5     6 1   
    10     5    14 1   
    11     5    16 1   
    12     6     7 1   
    13     6    17 1   
    14     6    18 1   
    15     7    14 1   
    16     7    19 1   
    17     7    20 1   
    18     8     9 1   
    19     8    11 1   
    20     8    13 1   
    21     9    21 1   
    22     9    22 1   
    23     9    23 1   
    24    10    15 1   
    25    11    12 2   
    26    11    24 1   
    27    12    25 1   
    28    14    26 1   
    29    14    27 1   
@<TRIPOS>SUBSTRUCTURE
     1 TQC         1 TEMP              0 ****  ****    0 ROOT
