@<TRIPOS>MOLECULE
TQD
   56    58     1     0     0
SMALL
abcg2


@<TRIPOS>ATOM
      1 C2D          4.8120     1.1400     1.6100 c6         1 TQD       0.659900
      2 C4D          2.5130     0.8680     1.7280 ce         1 TQD       0.739500
      3 C4A          2.5390    -0.1660     0.7060 ce         1 TQD      -0.361800
      4 C5D          1.2860    -0.6900     0.0570 c6         1 TQD       0.005800
      5 C6D          1.4780    -2.0750    -0.5560 c6         1 TQD      -0.099700
      6 C7           2.7690    -2.1150    -1.3610 c6         1 TQD      -0.063400
      7 C8           3.9700    -1.8710    -0.4600 c6         1 TQD      -0.051200
      8 C8A          3.7650    -0.6950     0.4450 c2         1 TQD       0.191800
      9 C10          0.2880    -2.4860    -1.4270 c3         1 TQD       0.217800
     10 C1          -1.7640    -1.3520    -0.6550 ca         1 TQD       0.381000
     11 C2          -2.4920    -1.0640     0.5050 ca         1 TQD      -0.291000
     12 C3          -3.3030     0.0670     0.5670 ca         1 TQD       0.188100
     13 C3B         -3.9240    -0.3880     2.8120 c3         1 TQD       0.146900
     14 C4          -3.4060     0.9320    -0.5200 ca         1 TQD      -0.010900
     15 C4B         -3.5780     3.1900     0.0440 c3         1 TQD       0.145900
     16 C5          -2.6720     0.6480    -1.6750 ca         1 TQD       0.188100
     17 C5B         -2.1200     1.3060    -3.8880 c3         1 TQD       0.146900
     18 C6          -1.8680    -0.4820    -1.7500 ca         1 TQD      -0.291000
     19 N1           4.8590    -0.2000     1.0670 nu         1 TQD      -0.833200
     20 N2           5.0180     2.1170     0.5430 n8         1 TQD      -1.042200
     21 N3           3.5640     1.4060     2.2530 n2         1 TQD      -0.750900
     22 N4           1.2900     1.2890     2.1790 nv         1 TQD      -1.009200
     23 N9          -0.9900    -2.4990    -0.7370 nh         1 TQD      -0.806400
     24 O3          -4.0250     0.4090     1.6510 os         1 TQD      -0.324100
     25 O4          -4.2150     2.0290    -0.4670 os         1 TQD      -0.323100
     26 O5          -2.8240     1.5280    -2.6830 os         1 TQD      -0.324100
     27 C9          -1.0720    -3.4690     0.3300 c3         1 TQD       0.195100
     28 H2           5.6090     1.1940     2.3620 h3         1 TQD       0.046700
     29 H5'1         0.4670    -0.7520     0.7800 hc         1 TQD       0.045700
     30 H5'2         0.9340     0.0020    -0.7190 hc         1 TQD       0.045700
     31 H6           1.5770    -2.7980     0.2640 hc         1 TQD       0.049700
     32 H7'1         2.8810    -3.0800    -1.8620 hc         1 TQD       0.046200
     33 H7'2         2.7340    -1.3550    -2.1480 hc         1 TQD       0.046200
     34 H81          4.1580    -2.7560     0.1570 hc         1 TQD       0.054200
     35 H82          4.8730    -1.7190    -1.0580 hc         1 TQD       0.054200
     36 H8'1         0.2410    -1.8290    -2.2960 h1         1 TQD       0.052700
     37 H8'2         0.4690    -3.4910    -1.8200 h1         1 TQD       0.052700
     38 H2'1        -2.4040    -1.7040     1.3690 ha         1 TQD       0.119500
     39 H3B1        -4.5690     0.0720     3.5580 h1         1 TQD       0.040033
     40 H3B2        -4.2640    -1.4120     2.6390 h1         1 TQD       0.040033
     41 H3B3        -2.9030    -0.4170     3.2020 h1         1 TQD       0.040033
     42 H4B1        -2.7140     3.4790    -0.5610 h1         1 TQD       0.031033
     43 H4B2        -4.3060     3.9990     0.0170 h1         1 TQD       0.031033
     44 H4B3        -3.2480     3.0530     1.0770 h1         1 TQD       0.031033
     45 H5B1        -2.3910     2.1190    -4.5570 h1         1 TQD       0.040033
     46 H5B2        -1.0370     1.3190    -3.7390 h1         1 TQD       0.040033
     47 H5B3        -2.3980     0.3580    -4.3570 h1         1 TQD       0.040033
     48 H6'1        -1.3410    -0.7080    -2.6650 ha         1 TQD       0.119500
     49 H1D          5.7620    -0.5650     0.8060 hn         1 TQD       0.476000
     50 H2A1         4.8450     3.0400     0.9270 hn         1 TQD       0.402500
     51 H2A2         5.9930     2.1130     0.2620 hn         1 TQD       0.402500
     52 H4'1         0.5220     0.6410     2.1540 hn         1 TQD       0.462500
     53 H4'2         1.3160     1.8420     3.0220 hn         1 TQD       0.462500
     54 H9'1        -0.6250    -3.1380     1.2750 h1         1 TQD       0.034700
     55 H9'2        -2.1090    -3.7410     0.5270 h1         1 TQD       0.034700
     56 H9'3        -0.5510    -4.3740     0.0190 h1         1 TQD       0.034700
@<TRIPOS>BOND
     1     1    19 1   
     2     1    20 1   
     3     1    21 1   
     4     1    28 1   
     5     2     3 1   
     6     2    21 2   
     7     2    22 1   
     8     3     4 1   
     9     3     8 2   
    10     4     5 1   
    11     4    29 1   
    12     4    30 1   
    13     5     6 1   
    14     5     9 1   
    15     5    31 1   
    16     6     7 1   
    17     6    32 1   
    18     6    33 1   
    19     7     8 1   
    20     7    34 1   
    21     7    35 1   
    22     8    19 1   
    23     9    23 1   
    24     9    36 1   
    25     9    37 1   
    26    10    11 ar  
    27    10    18 ar  
    28    10    23 1   
    29    11    12 ar  
    30    11    38 1   
    31    12    14 ar  
    32    12    24 1   
    33    13    24 1   
    34    13    39 1   
    35    13    40 1   
    36    13    41 1   
    37    14    16 ar  
    38    14    25 1   
    39    15    25 1   
    40    15    42 1   
    41    15    43 1   
    42    15    44 1   
    43    16    18 ar  
    44    16    26 1   
    45    17    26 1   
    46    17    45 1   
    47    17    46 1   
    48    17    47 1   
    49    18    48 1   
    50    19    49 1   
    51    20    50 1   
    52    20    51 1   
    53    22    52 1   
    54    22    53 1   
    55    23    27 1   
    56    27    54 1   
    57    27    55 1   
    58    27    56 1   
@<TRIPOS>SUBSTRUCTURE
     1 TQD         1 TEMP              0 ****  ****    0 ROOT
