@<TRIPOS>MOLECULE
TQD
   56    58     1     0     0
SMALL
No Charge or Current Charge


@<TRIPOS>ATOM
      1 C2D          4.9700     0.8430     1.9780 c6         1 TQD       0.659900
      2 C4D          2.7630     1.1630     1.4180 ce         1 TQD       0.739500
      3 C4A          2.7820    -0.0750     0.6280 ce         1 TQD      -0.361800
      4 C5D          1.4580    -0.5940     0.0240 c6         1 TQD       0.005800
      5 C6D          1.5800    -2.0140    -0.6020 c6         1 TQD      -0.099700
      6 C7           2.8930    -2.1320    -1.4140 c6         1 TQD      -0.063400
      7 C8           4.1200    -1.9080    -0.5000 c6         1 TQD      -0.051200
      8 C8A          3.9590    -0.6820     0.3860 c2         1 TQD       0.191800
      9 C10          0.3420    -2.3800    -1.4740 c3         1 TQD       0.217800
     10 C1          -1.7750    -1.2470    -0.7130 ca         1 TQD       0.381000
     11 C2          -2.2560    -0.7700     0.5100 ca         1 TQD      -0.291000
     12 C3          -3.0690     0.3810     0.5760 ca         1 TQD       0.188100
     13 C3B         -3.2300     0.1820     3.0470 c3         1 TQD       0.146900
     14 C4          -3.4080     1.0680    -0.6300 ca         1 TQD      -0.010900
     15 C4B         -4.7980     2.8770     0.4330 c3         1 TQD       0.145900
     16 C5          -2.9170     0.5710    -1.8600 ca         1 TQD       0.188100
     17 C5B         -2.8050     0.8290    -4.3220 c3         1 TQD       0.146900
     18 C6          -2.1080    -0.5800    -1.8940 ca         1 TQD      -0.291000
     19 N1           5.0740    -0.1170     0.9780 nu         1 TQD      -0.833200
     20 N2           6.0910     1.5580     1.5580 n8         1 TQD      -1.042200
     21 N3           3.8520     1.7000     1.8090 n2         1 TQD      -0.750900
     22 N4           1.5910     1.8160     1.5800 nv         1 TQD      -1.009200
     23 N9          -0.9530    -2.3910    -0.7530 nh         1 TQD      -0.806400
     24 O3          -3.5270     0.8360     1.8010 os         1 TQD      -0.324100
     25 O4          -4.2030     2.2150    -0.6960 os         1 TQD      -0.323100
     26 O5          -3.2580     1.2450    -3.0220 os         1 TQD      -0.324100
     27 C9          -1.2450    -3.5660     0.0950 c3         1 TQD       0.195100
     28 H2           5.0920     0.4470     3.0000 h3         1 TQD       0.046700
     29 H5'1         0.6790    -0.6230     0.7990 hc         1 TQD       0.045700
     30 H5'2         1.1130     0.1160    -0.7410 hc         1 TQD       0.045700
     31 H6           1.6160    -2.7520     0.2120 hc         1 TQD       0.049700
     32 H7'1         2.9650    -3.1190    -1.8910 hc         1 TQD       0.046200
     33 H7'2         2.8970    -1.3890    -2.2250 hc         1 TQD       0.046200
     34 H81          4.2650    -2.7890     0.1400 hc         1 TQD       0.054200
     35 H82          5.0260    -1.8170    -1.1140 hc         1 TQD       0.054200
     36 H8'1         0.3040    -1.6770    -2.3170 h1         1 TQD       0.052700
     37 H8'2         0.5140    -3.3710    -1.9160 h1         1 TQD       0.052700
     38 H2'1        -1.9720    -1.3030     1.4100 ha         1 TQD       0.119500
     39 H3B1        -3.7040     0.7190     3.8790 h1         1 TQD       0.040033
     40 H3B2        -3.6090    -0.8470     3.0480 h1         1 TQD       0.040033
     41 H3B3        -2.1480     0.1620     3.2300 h1         1 TQD       0.040033
     42 H4B1        -4.0290     3.2300     1.1320 h1         1 TQD       0.031033
     43 H4B2        -5.3710     3.7510     0.0980 h1         1 TQD       0.031033
     44 H4B3        -5.4890     2.2070     0.9610 h1         1 TQD       0.031033
     45 H5B1        -3.1900     1.5080    -5.0930 h1         1 TQD       0.040033
     46 H5B2        -1.7090     0.8400    -4.3760 h1         1 TQD       0.040033
     47 H5B3        -3.1600    -0.1840    -4.5540 h1         1 TQD       0.040033
     48 H6'1        -1.7420    -0.9770    -2.8330 ha         1 TQD       0.119500
     49 H1D          5.8200     0.1480     0.3500 hn         1 TQD       0.476000
     50 H2A1         6.0390     2.4310     2.0840 hn         1 TQD       0.402500
     51 H2A2         6.8920     1.0770     1.9700 hn         1 TQD       0.402500
     52 H4'1         0.7640     1.2410     1.5290 hn         1 TQD       0.462500
     53 H4'2         1.6070     2.5350     2.2900 hn         1 TQD       0.462500
     54 H9'1        -0.7390    -3.4760     1.0660 h1         1 TQD       0.034700
     55 H9'2        -2.3260    -3.6560     0.2690 h1         1 TQD       0.034700
     56 H9'3        -0.9070    -4.4900    -0.3930 h1         1 TQD       0.034700
@<TRIPOS>BOND
     1     1    19 1   
     2     1    20 1   
     3     1    21 1   
     4     1    28 1   
     5     2     3 1   
     6     2    21 2   
     7     2    22 1   
     8     3     4 1   
     9     3     8 2   
    10     4     5 1   
    11     4    29 1   
    12     4    30 1   
    13     5     6 1   
    14     5     9 1   
    15     5    31 1   
    16     6     7 1   
    17     6    32 1   
    18     6    33 1   
    19     7     8 1   
    20     7    34 1   
    21     7    35 1   
    22     8    19 1   
    23     9    23 1   
    24     9    36 1   
    25     9    37 1   
    26    10    11 ar  
    27    10    18 ar  
    28    10    23 1   
    29    11    12 ar  
    30    11    38 1   
    31    12    14 ar  
    32    12    24 1   
    33    13    24 1   
    34    13    39 1   
    35    13    40 1   
    36    13    41 1   
    37    14    16 ar  
    38    14    25 1   
    39    15    25 1   
    40    15    42 1   
    41    15    43 1   
    42    15    44 1   
    43    16    18 ar  
    44    16    26 1   
    45    17    26 1   
    46    17    45 1   
    47    17    46 1   
    48    17    47 1   
    49    18    48 1   
    50    19    49 1   
    51    20    50 1   
    52    20    51 1   
    53    22    52 1   
    54    22    53 1   
    55    23    27 1   
    56    27    54 1   
    57    27    55 1   
    58    27    56 1   
@<TRIPOS>SUBSTRUCTURE
     1 TQD         1 TEMP              0 ****  ****    0 ROOT
