@<TRIPOS>MOLECULE
TQE
   25    25     1     0     0
SMALL
No Charge or Current Charge


@<TRIPOS>ATOM
      1 C1          39.6710    41.8510    16.8770 c3         1 TQE       0.188600
      2 C2          37.3000    41.9390    16.2670 cc         1 TQE       0.753200
      3 C3          35.0260    42.0740    15.8030 c          1 TQE       0.725400
      4 O1          33.8950    42.3710    16.1280 o          1 TQE      -0.533000
      5 N           36.0570    42.2590    16.6060 ns         1 TQE      -0.570900
      6 N1          35.3270    41.5370    14.6100 nc         1 TQE      -0.807100
      7 C4          36.5570    41.2290    14.2940 cd         1 TQE       0.954200
      8 N3          36.8110    40.6760    13.0480 nh         1 TQE      -0.717600
      9 C6          38.1830    40.3050    12.6270 c3         1 TQE       0.209100
     10 C5          35.7190    40.4310    12.0760 c3         1 TQE       0.209100
     11 N2          37.6390    41.4140    15.1160 nd         1 TQE      -0.901000
     12 O           38.2960    42.1700    17.1710 os         1 TQE      -0.441600
     13 C           40.5050    42.2400    18.1070 c3         1 TQE      -0.104100
     14 H1          39.7930    40.7770    16.6780 h1         1 TQE       0.057700
     15 H2          40.0270    42.4110    16.0020 h1         1 TQE       0.057700
     16 H3          35.8790    42.6590    17.5100 hn         1 TQE       0.460000
     17 H4          38.6040    39.5550    13.3100 h1         1 TQE       0.050033
     18 H5          38.1980    39.8830    11.6140 h1         1 TQE       0.050033
     19 H6          38.8380    41.1860    12.6350 h1         1 TQE       0.050033
     20 H7          35.2120    41.3720    11.8240 h1         1 TQE       0.050033
     21 H8          36.0950    39.9900    11.1440 h1         1 TQE       0.050033
     22 H9          34.9770    39.7410    12.5000 h1         1 TQE       0.050033
     23 H10         41.5640    42.0160    17.9330 hc         1 TQE       0.053033
     24 H11         40.4100    43.3120    18.3150 hc         1 TQE       0.053033
     25 H12         40.1760    41.6800    18.9900 hc         1 TQE       0.053033
@<TRIPOS>BOND
     1     1    12 1   
     2     1    13 1   
     3     1    14 1   
     4     1    15 1   
     5     2     5 1   
     6     2    11 2   
     7     2    12 1   
     8     3     4 2   
     9     3     5 1   
    10     3     6 1   
    11     5    16 1   
    12     6     7 2   
    13     7     8 1   
    14     7    11 1   
    15     8     9 1   
    16     8    10 1   
    17     9    17 1   
    18     9    18 1   
    19     9    19 1   
    20    10    20 1   
    21    10    21 1   
    22    10    22 1   
    23    13    23 1   
    24    13    24 1   
    25    13    25 1   
@<TRIPOS>SUBSTRUCTURE
     1 TQE         1 TEMP              0 ****  ****    0 ROOT
