@<TRIPOS>MOLECULE
TQE
   25    25     1     0     0
SMALL
bcc


@<TRIPOS>ATOM
      1 C1          39.6330    41.8010    16.8830 c3         1 TQE       0.165400
      2 C2          37.3570    41.9510    16.2520 cc         1 TQE       0.753200
      3 C3          35.0350    42.1550    15.7400 c          1 TQE       0.867900
      4 O1          33.9270    42.5100    16.1020 o          1 TQE      -0.608500
      5 N           36.1190    42.3280    16.6120 ns         1 TQE      -0.524400
      6 N1          35.3130    41.6000    14.5480 nc         1 TQE      -0.807100
      7 C4          36.5610    41.2590    14.2700 cd         1 TQE       0.954200
      8 N3          36.8260    40.7090    13.0790 nh         1 TQE      -0.717600
      9 C6          38.1500    40.2960    12.6700 c3         1 TQE       0.209100
     10 C5          35.7970    40.4870    12.0880 c3         1 TQE       0.209100
     11 N2          37.6250    41.4210    15.1050 nd         1 TQE      -0.901000
     12 O           38.2680    42.1660    17.1630 os         1 TQE      -0.418400
     13 C           40.4450    42.1260    18.1110 c3         1 TQE      -0.104100
     14 H1          39.6800    40.7370    16.6470 h1         1 TQE       0.057700
     15 H2          39.9830    42.3590    16.0140 h1         1 TQE       0.057700
     16 H3          35.9540    42.7390    17.5220 hn         1 TQE       0.346500
     17 H4          38.8730    40.4610    13.4600 h1         1 TQE       0.050033
     18 H5          38.1440    39.2350    12.4130 h1         1 TQE       0.050033
     19 H6          38.4600    40.8560    11.7850 h1         1 TQE       0.050033
     20 H7          34.8340    40.8220    12.4530 h1         1 TQE       0.050033
     21 H8          36.0390    41.0290    11.1720 h1         1 TQE       0.050033
     22 H9          35.7360    39.4240    11.8450 h1         1 TQE       0.050033
     23 H10         41.4840    41.8510    17.9300 hc         1 TQE       0.053033
     24 H11         40.4160    43.1900    18.3440 hc         1 TQE       0.053033
     25 H12         40.1000    41.5660    18.9800 hc         1 TQE       0.053033
@<TRIPOS>BOND
     1     1    12 1   
     2     1    13 1   
     3     1    14 1   
     4     1    15 1   
     5     2     5 1   
     6     2    11 2   
     7     2    12 1   
     8     3     4 2   
     9     3     5 1   
    10     3     6 1   
    11     5    16 1   
    12     6     7 2   
    13     7     8 1   
    14     7    11 1   
    15     8     9 1   
    16     8    10 1   
    17     9    17 1   
    18     9    18 1   
    19     9    19 1   
    20    10    20 1   
    21    10    21 1   
    22    10    22 1   
    23    13    23 1   
    24    13    24 1   
    25    13    25 1   
@<TRIPOS>SUBSTRUCTURE
     1 TQE         1 TEMP              0 ****  ****    0 ROOT
