@<TRIPOS>MOLECULE
TQF
   64    69     1     0     0
SMALL
No Charge or Current Charge


@<TRIPOS>ATOM
      1 N1          -7.9990    -4.0530    15.1990 n          1 TQF      -0.375800
      2 C4          -8.4020     0.1860    15.5640 ca         1 TQF      -0.148000
      3 C5          -8.2990    -1.2180    15.5660 ca         1 TQF      -0.027300
      4 C6          -7.0850    -1.8320    15.9560 ca         1 TQF      -0.122300
      5 C7          -9.4960    -2.0620    15.1260 c6         1 TQF      -0.011100
      6 C8          -9.3560    -3.5540    15.4790 cx         1 TQF       0.050400
      7 C10         -7.6650    -5.1150    14.3150 c          1 TQF       0.619700
      8 C13         -9.6990    -7.5280    12.1540 ca         1 TQF      -0.117500
      9 C15        -10.3870    -5.2640    11.6030 ca         1 TQF      -0.117500
     10 C17        -10.6060    -4.4190    15.4290 cx         1 TQF      -0.120400
     11 C20         -6.0770    -5.0970    17.6490 ca         1 TQF      -0.060000
     12 C21         -5.9570    -5.6180    18.9480 ca         1 TQF      -0.174000
     13 C22         -6.5670    -4.9710    20.0340 ca         1 TQF       0.141100
     14 C24         -7.4270    -3.2690    18.5110 ca         1 TQF      -0.060000
     15 C26         -5.9480    -3.6320    22.9510 cy         1 TQF       0.131800
     16 C28         -4.2540    -4.2680    24.7910 c3         1 TQF       0.161800
     17 C1          -5.9950    -1.0270    16.3430 ca         1 TQF      -0.058000
     18 C11         -8.6760    -5.6310    13.3140 ca         1 TQF      -0.132600
     19 C12         -8.7820    -7.0210    13.0910 ca         1 TQF      -0.076000
     20 C14        -10.5070    -6.6500    11.4140 ca         1 TQF      -0.096000
     21 C16         -9.4710    -4.7560    12.5400 ca         1 TQF      -0.076000
     22 C18        -10.0440    -4.0040    16.7560 cx         1 TQF      -0.120400
     23 C19         -6.8150    -3.9190    17.4170 ca         1 TQF      -0.134300
     24 C2          -6.1080     0.3740    16.3410 ca         1 TQF      -0.199000
     25 C23         -7.3080    -3.7920    19.8110 ca         1 TQF      -0.174000
     26 C25         -6.8250    -4.8540    22.4940 cy         1 TQF       0.134300
     27 C27         -6.3350    -5.4940    23.8400 cy         1 TQF       0.131800
     28 C29         -3.5240    -5.4820    25.3940 c3         1 TQF      -0.087100
     29 C3          -7.3120     0.9780    15.9520 ca         1 TQF       0.138100
     30 C9          -6.9340    -3.3650    15.9840 c6         1 TQF       0.214300
     31 N2          -5.1120    -4.6470    23.6660 nq         1 TQF      -0.700600
     32 O1          -6.5390    -5.5990    14.3210 o          1 TQF      -0.605100
     33 O2          -7.4260     2.3350    15.9470 oh         1 TQF      -0.539100
     34 O3          -6.4170    -5.5300    21.2860 os         1 TQF      -0.329100
     35 H1          -9.3300     0.6630    15.2610 ha         1 TQF       0.128000
     36 H2         -10.4160    -1.6560    15.5700 hc         1 TQF       0.059200
     37 H3          -9.6200    -1.9550    14.0420 hc         1 TQF       0.059200
     38 H4          -9.7800    -8.6010    12.0010 ha         1 TQF       0.116000
     39 H5         -10.9980    -4.5810    11.0170 ha         1 TQF       0.116000
     40 H6         -11.5330    -3.9550    15.1020 hc         1 TQF       0.082450
     41 H7         -10.5240    -5.4740    15.1830 hc         1 TQF       0.082450
     42 H8          -5.5940    -5.6120    16.8210 ha         1 TQF       0.125500
     43 H9          -5.3870    -6.5270    19.1150 ha         1 TQF       0.122500
     44 H10         -8.0080    -2.3620    18.3600 ha         1 TQF       0.125500
     45 H11         -5.4560    -3.0870    22.1380 h1         1 TQF       0.060200
     46 H12         -6.4860    -2.9320    23.6030 h1         1 TQF       0.060200
     47 H13         -4.8630    -3.7850    25.5670 h1         1 TQF       0.029700
     48 H14         -3.5090    -3.5420    24.4390 h1         1 TQF       0.029700
     49 H15         -5.0590    -1.4900    16.6510 ha         1 TQF       0.121000
     50 H16         -8.1590    -7.7110    13.6580 ha         1 TQF       0.122000
     51 H17        -11.2150    -7.0420    10.6870 ha         1 TQF       0.114000
     52 H18         -9.3670    -3.6810    12.6470 ha         1 TQF       0.122000
     53 H19         -9.5660    -4.7780    17.3520 hc         1 TQF       0.082450
     54 H20        -10.5950    -3.2670    17.3350 hc         1 TQF       0.082450
     55 H21         -5.2580     0.9800    16.6440 ha         1 TQF       0.116000
     56 H22         -7.7990    -3.2710    20.6270 ha         1 TQF       0.122500
     57 H23         -7.9020    -4.6600    22.4680 h1         1 TQF       0.060700
     58 H24         -6.9630    -5.2300    24.7010 h1         1 TQF       0.060200
     59 H25         -6.1810    -6.5790    23.8040 h1         1 TQF       0.060200
     60 H26         -2.8680    -5.1620    26.2110 hc         1 TQF       0.039033
     61 H27         -4.2400    -6.2090    25.7950 hc         1 TQF       0.039033
     62 H28         -2.9090    -5.9800    24.6340 hc         1 TQF       0.039033
     63 H29         -5.9700    -3.5610    15.4930 h1         1 TQF       0.097700
     64 H31         -6.5720     2.7170    16.2430 ho         1 TQF       0.463000
@<TRIPOS>BOND
     1     1     6 1   
     2     1     7 1   
     3     1    30 1   
     4     2     3 ar  
     5     2    29 ar  
     6     2    35 1   
     7     3     4 ar  
     8     3     5 1   
     9     4    17 ar  
    10     4    30 1   
    11     5     6 1   
    12     5    36 1   
    13     5    37 1   
    14     6    10 1   
    15     6    22 1   
    16     7    18 1   
    17     7    32 2   
    18     8    19 ar  
    19     8    20 ar  
    20     8    38 1   
    21     9    20 ar  
    22     9    21 ar  
    23     9    39 1   
    24    10    22 1   
    25    10    40 1   
    26    10    41 1   
    27    11    12 ar  
    28    11    23 ar  
    29    11    42 1   
    30    12    13 ar  
    31    12    43 1   
    32    13    25 ar  
    33    13    34 1   
    34    14    23 ar  
    35    14    25 ar  
    36    14    44 1   
    37    15    26 1   
    38    15    31 1   
    39    15    45 1   
    40    15    46 1   
    41    16    28 1   
    42    16    31 1   
    43    16    47 1   
    44    16    48 1   
    45    17    24 ar  
    46    17    49 1   
    47    18    19 ar  
    48    18    21 ar  
    49    19    50 1   
    50    20    51 1   
    51    21    52 1   
    52    22    53 1   
    53    22    54 1   
    54    23    30 1   
    55    24    29 ar  
    56    24    55 1   
    57    25    56 1   
    58    26    27 1   
    59    26    34 1   
    60    26    57 1   
    61    27    31 1   
    62    27    58 1   
    63    27    59 1   
    64    28    60 1   
    65    28    61 1   
    66    28    62 1   
    67    29    33 1   
    68    30    63 1   
    69    33    64 1   
@<TRIPOS>SUBSTRUCTURE
     1 TQF         1 TEMP              0 ****  ****    0 ROOT
