@<TRIPOS>MOLECULE
TQF
   64    69     1     0     0
SMALL
abcg2


@<TRIPOS>ATOM
      1 N1          -7.9610    -4.0300    15.2250 n          1 TQF      -0.375800
      2 C4          -8.5870     0.1010    15.5250 ca         1 TQF      -0.148000
      3 C5          -8.4060    -1.2820    15.5570 ca         1 TQF      -0.027300
      4 C6          -7.1460    -1.8070    15.8530 ca         1 TQF      -0.122300
      5 C7          -9.5700    -2.1860    15.2300 c6         1 TQF      -0.011100
      6 C8          -9.2950    -3.6220    15.6110 cx         1 TQF       0.050400
      7 C10         -7.6190    -4.9220    14.2620 c          1 TQF       0.619700
      8 C13         -9.7730    -7.3830    12.3820 ca         1 TQF      -0.117500
      9 C15        -10.3870    -5.1620    11.6780 ca         1 TQF      -0.117500
     10 C17        -10.4290    -4.5950    15.6680 cx         1 TQF      -0.120400
     11 C20         -6.2760    -5.1500    17.5170 ca         1 TQF      -0.060000
     12 C21         -6.1400    -5.7000    18.7790 ca         1 TQF      -0.174000
     13 C22         -6.4230    -4.9310    19.9120 ca         1 TQF       0.141100
     14 C24         -6.9660    -3.0740    18.4780 ca         1 TQF      -0.060000
     15 C26         -5.4590    -3.8280    22.7240 cy         1 TQF       0.131800
     16 C28         -4.5470    -4.3990    24.9830 c3         1 TQF       0.161800
     17 C1          -6.0900    -0.9300    16.1000 ca         1 TQF      -0.058000
     18 C11         -8.6840    -5.4640    13.3590 ca         1 TQF      -0.132600
     19 C12         -8.8320    -6.8470    13.2510 ca         1 TQF      -0.076000
     20 C14        -10.5530    -6.5410    11.5920 ca         1 TQF      -0.096000
     21 C16         -9.4610    -4.6250    12.5640 ca         1 TQF      -0.076000
     22 C18         -9.8180    -4.1020    16.9480 cx         1 TQF      -0.120400
     23 C19         -6.6990    -3.8280    17.3440 ca         1 TQF      -0.134300
     24 C2          -6.2650     0.4440    16.0710 ca         1 TQF      -0.199000
     25 C23         -6.8320    -3.6090    19.7580 ca         1 TQF      -0.174000
     26 C25         -6.5680    -4.8080    22.2930 cy         1 TQF       0.134300
     27 C27         -6.2070    -5.6170    23.5430 cy         1 TQF       0.131800
     28 C29         -4.0520    -5.5500    25.8460 c3         1 TQF      -0.087100
     29 C3          -7.5290     0.9620    15.7860 ca         1 TQF       0.138100
     30 C9          -6.8890    -3.2980    15.9290 c6         1 TQF       0.214300
     31 N2          -4.9430    -4.8510    23.6620 nq         1 TQF      -0.700600
     32 O1          -6.4520    -5.2940    14.0960 o          1 TQF      -0.605100
     33 O2          -7.7770     2.3050    15.7470 oh         1 TQF      -0.539100
     34 O3          -6.2710    -5.5540    21.1160 os         1 TQF      -0.329100
     35 H1          -9.5610     0.5160    15.2970 ha         1 TQF       0.128000
     36 H2         -10.4690    -1.8360    15.7400 hc         1 TQF       0.059200
     37 H3          -9.7760    -2.1210    14.1570 hc         1 TQF       0.059200
     38 H4          -9.8960    -8.4560    12.3160 ha         1 TQF       0.116000
     39 H5         -10.9820    -4.5030    11.0580 ha         1 TQF       0.116000
     40 H6         -11.3960    -4.2170    15.3620 hc         1 TQF       0.082450
     41 H7         -10.2440    -5.6220    15.3950 hc         1 TQF       0.082450
     42 H8          -6.0650    -5.7570    16.6460 ha         1 TQF       0.125500
     43 H9          -5.8160    -6.7250    18.9080 ha         1 TQF       0.122500
     44 H10         -7.2950    -2.0490    18.3780 ha         1 TQF       0.125500
     45 H11         -4.7540    -3.5100    21.9540 h1         1 TQF       0.060200
     46 H12         -5.8730    -2.9460    23.2290 h1         1 TQF       0.060200
     47 H13         -5.3880    -3.8920    25.4890 h1         1 TQF       0.029700
     48 H14         -3.7560    -3.6550    24.8560 h1         1 TQF       0.029700
     49 H15         -5.1090    -1.3330    16.3270 ha         1 TQF       0.121000
     50 H16         -8.2170    -7.4970    13.8600 ha         1 TQF       0.122000
     51 H17        -11.2830    -6.9590    10.9110 ha         1 TQF       0.114000
     52 H18         -9.3370    -3.5530    12.6280 ha         1 TQF       0.122000
     53 H19         -9.2090    -4.8030    17.4970 hc         1 TQF       0.082450
     54 H20        -10.3540    -3.3830    17.5530 hc         1 TQF       0.082450
     55 H21         -5.4360     1.1130    16.2660 ha         1 TQF       0.116000
     56 H22         -7.0490    -2.9880    20.6140 ha         1 TQF       0.122500
     57 H23         -7.5830    -4.4170    22.2380 h1         1 TQF       0.060700
     58 H24         -6.9060    -5.4210    24.3650 h1         1 TQF       0.060200
     59 H25         -6.0920    -6.6940    23.4080 h1         1 TQF       0.060200
     60 H26         -3.7640    -5.1890    26.8350 hc         1 TQF       0.039033
     61 H27         -4.8320    -6.3030    25.9790 hc         1 TQF       0.039033
     62 H28         -3.1870    -6.0330    25.3870 hc         1 TQF       0.039033
     63 H29         -5.9800    -3.5150    15.3720 h1         1 TQF       0.097700
     64 H31         -6.9670     2.7940    15.9450 ho         1 TQF       0.463000
@<TRIPOS>BOND
     1     1     6 1   
     2     1     7 1   
     3     1    30 1   
     4     2     3 ar  
     5     2    29 ar  
     6     2    35 1   
     7     3     4 ar  
     8     3     5 1   
     9     4    17 ar  
    10     4    30 1   
    11     5     6 1   
    12     5    36 1   
    13     5    37 1   
    14     6    10 1   
    15     6    22 1   
    16     7    18 1   
    17     7    32 2   
    18     8    19 ar  
    19     8    20 ar  
    20     8    38 1   
    21     9    20 ar  
    22     9    21 ar  
    23     9    39 1   
    24    10    22 1   
    25    10    40 1   
    26    10    41 1   
    27    11    12 ar  
    28    11    23 ar  
    29    11    42 1   
    30    12    13 ar  
    31    12    43 1   
    32    13    25 ar  
    33    13    34 1   
    34    14    23 ar  
    35    14    25 ar  
    36    14    44 1   
    37    15    26 1   
    38    15    31 1   
    39    15    45 1   
    40    15    46 1   
    41    16    28 1   
    42    16    31 1   
    43    16    47 1   
    44    16    48 1   
    45    17    24 ar  
    46    17    49 1   
    47    18    19 ar  
    48    18    21 ar  
    49    19    50 1   
    50    20    51 1   
    51    21    52 1   
    52    22    53 1   
    53    22    54 1   
    54    23    30 1   
    55    24    29 ar  
    56    24    55 1   
    57    25    56 1   
    58    26    27 1   
    59    26    34 1   
    60    26    57 1   
    61    27    31 1   
    62    27    58 1   
    63    27    59 1   
    64    28    60 1   
    65    28    61 1   
    66    28    62 1   
    67    29    33 1   
    68    30    63 1   
    69    33    64 1   
@<TRIPOS>SUBSTRUCTURE
     1 TQF         1 TEMP              0 ****  ****    0 ROOT
