@<TRIPOS>MOLECULE
TQG
   35    35     1     0     0
SMALL
No Charge or Current Charge


@<TRIPOS>ATOM
      1 O11         16.4280   -19.0680   -15.5720 o          1 TQG      -0.767000
      2 O12         14.4320   -19.2100   -14.7850 o          1 TQG      -0.767000
      3 C02         15.2260   -21.9160   -10.2160 c          1 TQG       0.564100
      4 C04         17.0450   -21.8530   -12.0070 c3         1 TQG      -0.040300
      5 C05         18.5750   -21.5200   -11.9990 c          1 TQG       0.722000
      6 C08         16.3240   -21.2750   -13.2560 c3         1 TQG      -0.043400
      7 C09         16.2160   -19.7270   -13.3010 c3         1 TQG      -0.197400
      8 C10         15.6450   -19.2790   -14.6580 c          1 TQG       0.726000
      9 C13         14.8130   -21.2930    -8.8580 c3         1 TQG       0.076600
     10 C15         14.6550   -18.8990    -9.5120 ca         1 TQG       0.090100
     11 C16         15.2940   -17.6500    -9.5100 ca         1 TQG      -0.177000
     12 C17         14.7730   -16.5880   -10.2640 ca         1 TQG      -0.132000
     13 C18         13.6010   -16.7680   -11.0160 ca         1 TQG      -0.104000
     14 C19         12.9310   -18.0150   -11.0270 ca         1 TQG      -0.079600
     15 C20         11.6440   -18.2000   -11.8260 c          1 TQG       0.727600
     16 C23         13.4760   -19.0810   -10.2690 ca         1 TQG      -0.142000
     17 N03         16.4080   -21.4320   -10.7370 ns         1 TQG      -0.429900
     18 O01         14.5730   -22.7940   -10.7710 o          1 TQG      -0.679100
     19 O14         15.2140   -19.9030    -8.7450 os         1 TQG      -0.373100
     20 O21         11.2000   -17.2490   -12.4560 o          1 TQG      -0.723500
     21 O22         11.0730   -19.2820   -11.7780 o          1 TQG      -0.723500
     22 H041        16.9690   -22.9470   -12.0580 h1         1 TQG       0.022700
     23 H081        15.3150   -21.7000   -13.3140 hc         1 TQG       0.039700
     24 H082        16.8540   -21.6240   -14.1520 hc         1 TQG       0.039700
     25 H092        17.2350   -19.3410   -13.1780 hc         1 TQG       0.024700
     26 H091        15.5360   -19.4450   -12.4890 hc         1 TQG       0.024700
     27 H131        13.7320   -21.4100    -8.7170 h1         1 TQG       0.038200
     28 H132        15.3150   -21.8780    -8.0770 h1         1 TQG       0.038200
     29 H161        16.1990   -17.5050    -8.9260 ha         1 TQG       0.078000
     30 H171        15.2740   -15.6240   -10.2620 ha         1 TQG       0.061000
     31 H181        13.2100   -15.9300   -11.5890 ha         1 TQG       0.117000
     32 H231        12.9660   -20.0380   -10.2710 ha         1 TQG       0.150000
     33 H031        16.8640   -20.7010   -10.2000 hn         1 TQG       0.346500
     34 O06         18.9890   -20.6530   -11.2380 o          1 TQG      -0.754000
     35 O07         19.3210   -22.2270   -12.6640 o          1 TQG      -0.754000
@<TRIPOS>BOND
     1     1     8 1   
     2     2     8 1   
     3     3     9 1   
     4     3    17 1   
     5     3    18 2   
     6     4     5 1   
     7     4     6 1   
     8     4    17 1   
     9     4    22 1   
    10     5    34 1   
    11     5    35 1   
    12     6     7 1   
    13     6    23 1   
    14     6    24 1   
    15     7     8 1   
    16     7    25 1   
    17     7    26 1   
    18     9    19 1   
    19     9    27 1   
    20     9    28 1   
    21    10    11 ar  
    22    10    16 ar  
    23    10    19 1   
    24    11    12 ar  
    25    11    29 1   
    26    12    13 ar  
    27    12    30 1   
    28    13    14 ar  
    29    13    31 1   
    30    14    15 1   
    31    14    16 ar  
    32    15    20 1   
    33    15    21 1   
    34    16    32 1   
    35    17    33 1   
@<TRIPOS>SUBSTRUCTURE
     1 TQG         1 TEMP              0 ****  ****    0 ROOT
