@<TRIPOS>MOLECULE
TQG
   35    35     1     0     0
SMALL
bcc


@<TRIPOS>ATOM
      1 O11         14.8990   -20.0520   -15.3330 o          1 TQG      -0.872300
      2 O12         15.2010   -18.0000   -14.5160 o          1 TQG      -0.872300
      3 C02         15.2910   -21.8810   -10.1840 c          1 TQG       0.631100
      4 C04         16.9780   -21.8220   -11.9720 c3         1 TQG      -0.040300
      5 C05         18.4580   -21.3740   -12.0330 c          1 TQG       0.932600
      6 C08         16.2030   -21.3120   -13.1950 c3         1 TQG      -0.043400
      7 C09         16.2060   -19.7980   -13.3430 c3         1 TQG      -0.197400
      8 C10         15.3520   -19.2410   -14.5000 c          1 TQG       0.936600
      9 C13         14.8250   -21.2300    -8.8840 c3         1 TQG       0.053400
     10 C15         14.6700   -18.9310    -9.4680 ca         1 TQG       0.090100
     11 C16         15.0910   -17.6270    -9.2140 ca         1 TQG      -0.195000
     12 C17         14.5570   -16.5830    -9.9510 ca         1 TQG      -0.150000
     13 C18         13.6080   -16.8220   -10.9380 ca         1 TQG      -0.122000
     14 C19         13.1880   -18.1200   -11.1970 ca         1 TQG      -0.079600
     15 C20         12.1650   -18.4180   -12.2940 c          1 TQG       0.938200
     16 C23         13.7220   -19.1720   -10.4540 ca         1 TQG      -0.160000
     17 N03         16.3870   -21.3640   -10.7320 ns         1 TQG      -0.496900
     18 O01         14.6730   -22.8430   -10.6260 o          1 TQG      -0.679100
     19 O14         15.2450   -19.8990    -8.7070 os         1 TQG      -0.349900
     20 O21         11.6560   -17.4320   -12.8600 o          1 TQG      -0.828800
     21 O22         11.9350   -19.6200   -12.5260 o          1 TQG      -0.828800
     22 H041        16.9520   -22.9160   -11.9850 h1         1 TQG       0.022700
     23 H081        15.1740   -21.6740   -13.1310 hc         1 TQG       0.039700
     24 H082        16.6330   -21.7790   -14.0820 hc         1 TQG       0.039700
     25 H092        17.2310   -19.4380   -13.4960 hc         1 TQG       0.024700
     26 H091        15.8720   -19.3280   -12.4140 hc         1 TQG       0.024700
     27 H131        13.7380   -21.3290    -8.8210 h1         1 TQG       0.038200
     28 H132        15.2500   -21.7920    -8.0500 h1         1 TQG       0.038200
     29 H161        15.8320   -17.4400    -8.4470 ha         1 TQG       0.096000
     30 H171        14.8890   -15.5720    -9.7520 ha         1 TQG       0.079000
     31 H181        13.2000   -15.9990   -11.5100 ha         1 TQG       0.135000
     32 H231        13.3790   -20.1710   -10.6850 ha         1 TQG       0.168000
     33 H031        16.8980   -20.6260   -10.2680 hn         1 TQG       0.346500
     34 O06         18.8460   -20.5670   -11.1650 o          1 TQG      -0.859300
     35 O07         19.1200   -21.8550   -12.9690 o          1 TQG      -0.859300
@<TRIPOS>BOND
     1     1     8 1   
     2     2     8 1   
     3     3     9 1   
     4     3    17 1   
     5     3    18 2   
     6     4     5 1   
     7     4     6 1   
     8     4    17 1   
     9     4    22 1   
    10     5    34 1   
    11     5    35 1   
    12     6     7 1   
    13     6    23 1   
    14     6    24 1   
    15     7     8 1   
    16     7    25 1   
    17     7    26 1   
    18     9    19 1   
    19     9    27 1   
    20     9    28 1   
    21    10    11 ar  
    22    10    16 ar  
    23    10    19 1   
    24    11    12 ar  
    25    11    29 1   
    26    12    13 ar  
    27    12    30 1   
    28    13    14 ar  
    29    13    31 1   
    30    14    15 1   
    31    14    16 ar  
    32    15    20 1   
    33    15    21 1   
    34    16    32 1   
    35    17    33 1   
@<TRIPOS>SUBSTRUCTURE
     1 TQG         1 TEMP              0 ****  ****    0 ROOT
