@<TRIPOS>MOLECULE
TQH
   30    32     1     0     0
SMALL
No Charge or Current Charge


@<TRIPOS>ATOM
      1 CAA         34.1470    14.2590     8.8450 c3         1 TQH      -0.126400
      2 CAB         32.8090    14.9110     9.0270 cc         1 TQH       0.154300
      3 OAF         31.9600    14.4390    10.0020 os         1 TQH      -0.219000
      4 CAC         32.2210    15.9560     8.3700 cd         1 TQH      -0.193000
      5 CAD         30.9540    16.1530     8.9560 cd         1 TQH      -0.179000
      6 CAE         30.8230    15.2180     9.9490 cc         1 TQH       0.088300
      7 CAG         29.6940    14.9620    10.9230 c3         1 TQH       0.196500
      8 NAH         30.1060    15.1880    12.3250 nu         1 TQH      -0.922100
      9 CAI         30.6320    16.3190    12.8500 cc         1 TQH       0.639400
     10 NAJ         30.7440    17.4840    12.1890 na         1 TQH      -0.523000
     11 NAM         31.0930    16.4290    14.0730 nd         1 TQH      -0.421000
     12 NAL         31.5370    17.7260    14.2170 nd         1 TQH      -0.344000
     13 CAK         31.3220    18.3490    13.0680 cc         1 TQH       0.458000
     14 CAN         31.6170    19.7040    12.7120 cc         1 TQH      -0.265500
     15 SAR         32.3620    20.8470    13.8200 ss         1 TQH       0.306000
     16 CAQ         32.3150    22.1010    12.5810 cc         1 TQH      -0.259000
     17 CAP         31.7600    21.6310    11.4150 cd         1 TQH      -0.133000
     18 CAO         31.3610    20.2700    11.4830 cd         1 TQH      -0.129000
     19 H1          34.7390    14.3260     9.7650 hc         1 TQH       0.058367
     20 H2          34.0300    13.2000     8.5900 hc         1 TQH       0.058367
     21 H3          34.7120    14.7430     8.0410 hc         1 TQH       0.058367
     22 H4          32.6560    16.5230     7.5530 ha         1 TQH       0.144000
     23 H5          30.2190    16.9020     8.6790 ha         1 TQH       0.140000
     24 H6          28.8500    15.6190    10.6690 h1         1 TQH       0.060700
     25 H7          29.3510    13.9260    10.7940 h1         1 TQH       0.060700
     26 H8          30.1740    14.3860    12.9500 hn         1 TQH       0.511000
     27 H9          30.4720    17.6650    11.2420 hn         1 TQH       0.368000
     28 H10         32.7010    23.0860    12.8080 h4         1 TQH       0.152000
     29 H11         31.6370    22.2430    10.5250 ha         1 TQH       0.134000
     30 H12         30.9060    19.7460    10.6480 ha         1 TQH       0.126000
@<TRIPOS>BOND
     1     1     2 1   
     2     1    19 1   
     3     1    20 1   
     4     1    21 1   
     5     2     3 1   
     6     2     4 2   
     7     3     6 1   
     8     4     5 1   
     9     4    22 1   
    10     5     6 2   
    11     5    23 1   
    12     6     7 1   
    13     7     8 1   
    14     7    24 1   
    15     7    25 1   
    16     8     9 1   
    17     8    26 1   
    18     9    10 1   
    19     9    11 2   
    20    10    13 1   
    21    10    27 1   
    22    11    12 1   
    23    12    13 2   
    24    13    14 1   
    25    14    15 1   
    26    14    18 2   
    27    15    16 1   
    28    16    17 2   
    29    16    28 1   
    30    17    18 1   
    31    17    29 1   
    32    18    30 1   
@<TRIPOS>SUBSTRUCTURE
     1 TQH         1 TEMP              0 ****  ****    0 ROOT
