@<TRIPOS>MOLECULE
TQH
   30    32     1     0     0
SMALL
bcc


@<TRIPOS>ATOM
      1 CAA         34.1050    14.2750     8.8030 c3         1 TQH      -0.126400
      2 CAB         32.7570    14.8730     8.9300 cc         1 TQH       0.264000
      3 OAF         32.0100    14.5180    10.0010 os         1 TQH      -0.307800
      4 CAC         32.0680    15.7600     8.1720 cd         1 TQH      -0.276300
      5 CAD         30.8160    15.9670     8.8290 cd         1 TQH      -0.262300
      6 CAE         30.8350    15.1840     9.9350 cc         1 TQH       0.198000
      7 CAG         29.8300    14.9410    11.0060 c3         1 TQH       0.196500
      8 NAH         30.3730    15.1100    12.3380 nu         1 TQH      -0.866900
      9 CAI         30.6810    16.3260    12.8490 cc         1 TQH       0.639400
     10 NAJ         30.9040    17.4370    12.1070 na         1 TQH      -0.472700
     11 NAM         30.8480    16.5970    14.1210 nd         1 TQH      -0.421000
     12 NAL         31.1940    17.9090    14.2110 nd         1 TQH      -0.344000
     13 CAK         31.2270    18.4070    13.0120 cc         1 TQH       0.458000
     14 CAN         31.5520    19.7710    12.6790 cc         1 TQH      -0.120600
     15 SAR         32.0380    20.8560    13.9270 ss         1 TQH       0.016200
     16 CAQ         32.2200    22.1420    12.8100 cc         1 TQH      -0.132100
     17 CAP         31.9220    21.7560    11.5400 cd         1 TQH      -0.151000
     18 CAO         31.5380    20.3920    11.4600 cd         1 TQH      -0.147000
     19 H1          34.7440    14.5310     9.6500 hc         1 TQH       0.058367
     20 H2          34.0630    13.1860     8.7400 hc         1 TQH       0.058367
     21 H3          34.5840    14.6440     7.8990 hc         1 TQH       0.058367
     22 H4          32.4130    16.2190     7.2590 ha         1 TQH       0.162000
     23 H5          30.0080    16.6110     8.5200 ha         1 TQH       0.158000
     24 H6          28.9710    15.5940    10.8150 h1         1 TQH       0.060700
     25 H7          29.4590    13.9160    10.9530 h1         1 TQH       0.060700
     26 H8          30.0810    14.4360    13.0270 hn         1 TQH       0.455800
     27 H9          30.8900    17.5180    11.1000 hn         1 TQH       0.317700
     28 H10         32.5360    23.1160    13.1520 h4         1 TQH       0.170000
     29 H11         31.9730    22.4170    10.6870 ha         1 TQH       0.152000
     30 H12         31.2620    19.9020    10.5370 ha         1 TQH       0.144000
@<TRIPOS>BOND
     1     1     2 1   
     2     1    19 1   
     3     1    20 1   
     4     1    21 1   
     5     2     3 1   
     6     2     4 2   
     7     3     6 1   
     8     4     5 1   
     9     4    22 1   
    10     5     6 2   
    11     5    23 1   
    12     6     7 1   
    13     7     8 1   
    14     7    24 1   
    15     7    25 1   
    16     8     9 1   
    17     8    26 1   
    18     9    10 1   
    19     9    11 2   
    20    10    13 1   
    21    10    27 1   
    22    11    12 1   
    23    12    13 2   
    24    13    14 1   
    25    14    15 1   
    26    14    18 2   
    27    15    16 1   
    28    16    17 2   
    29    16    28 1   
    30    17    18 1   
    31    17    29 1   
    32    18    30 1   
@<TRIPOS>SUBSTRUCTURE
     1 TQH         1 TEMP              0 ****  ****    0 ROOT
