@<TRIPOS>MOLECULE
TQI
   42    44     1     0     0
SMALL
No Charge or Current Charge


@<TRIPOS>ATOM
      1 N           -7.0240   -15.7170    -8.5050 n7         1 TQI      -0.832300
      2 CA          -6.8280   -17.0930    -7.9290 c3         1 TQI       0.049500
      3 C           -6.2690   -17.1030    -6.4600 c          1 TQI       0.695000
      4 O           -5.2580   -16.4510    -6.2260 o          1 TQI      -0.710000
      5 CB          -5.9330   -17.9310    -8.8710 c3         1 TQI       0.021800
      6 CG          -5.9960   -19.4040    -8.5630 cc         1 TQI      -0.104400
      7 CD1         -4.9840   -20.2100    -8.0500 cd         1 TQI      -0.145100
      8 CD2         -7.1430   -20.2580    -8.7130 ca         1 TQI      -0.075800
      9 NE1         -5.4700   -21.5300    -7.8740 na         1 TQI      -0.229700
     10 CE2         -6.7890   -21.5080    -8.2870 ca         1 TQI      -0.047200
     11 CE3         -8.4330   -19.9760    -9.1900 ca         1 TQI      -0.045000
     12 CZ2         -7.7040   -22.5700    -8.2980 ca         1 TQI      -0.138000
     13 CZ3         -9.3750   -21.0260    -9.2100 ca         1 TQI      -0.159000
     14 CH2         -9.0120   -22.3190    -8.7640 ca         1 TQI      -0.105000
     15 OXT         -6.9110   -17.6800    -5.5920 o          1 TQI      -0.710000
     16 S1          -8.3290   -14.8080    -7.9950 sy         1 TQI       1.147600
     17 C2         -11.2090   -17.6860    -7.4680 ca         1 TQI      -0.208300
     18 C3         -11.7480   -18.5470    -6.3190 c3         1 TQI       0.366300
     19 C7          -9.6770   -15.9570    -8.2890 ca         1 TQI      -0.290500
     20 C8         -10.1940   -16.7290    -7.2300 ca         1 TQI       0.066000
     21 O14         -8.4250   -13.7100    -8.9590 o          1 TQI      -0.567500
     22 O15         -8.1420   -14.5820    -6.5610 o          1 TQI      -0.567500
     23 C16        -11.6990   -17.8410    -8.7870 ca         1 TQI       0.210000
     24 C19        -10.1710   -16.1240    -9.5930 ca         1 TQI       0.042000
     25 F20        -11.1700   -18.2640    -5.1290 f          1 TQI      -0.113333
     26 F21        -11.5400   -19.8650    -6.5390 f          1 TQI      -0.113333
     27 F22        -13.0780   -18.3750    -6.1440 f          1 TQI      -0.113333
     28 C23        -11.1840   -17.0630    -9.8350 ca         1 TQI      -0.133000
     29 Cl         -12.9600   -19.0110    -9.1840 cl         1 TQI      -0.195000
     30 H           -6.2500   -15.1280    -8.1980 hn         1 TQI       0.495000
     31 HA          -7.7890   -17.6170    -7.8920 h1         1 TQI       0.063700
     32 HB1C        -6.2590   -17.7770    -9.9070 hc         1 TQI       0.038700
     33 HB2C        -4.8980   -17.5720    -8.8150 hc         1 TQI       0.038700
     34 HD1         -3.9640   -19.9380    -7.7900 h4         1 TQI       0.214000
     35 HE1         -4.9560   -22.3280    -7.5140 hn         1 TQI       0.337000
     36 HE3         -8.7020   -18.9810    -9.5340 ha         1 TQI       0.118000
     37 HZ2         -7.4150   -23.5610    -7.9550 ha         1 TQI       0.097000
     38 HZ3        -10.3830   -20.8400    -9.5700 ha         1 TQI       0.097000
     39 HH2         -9.7440   -23.1230    -8.7830 ha         1 TQI       0.092000
     40 H8          -9.7860   -16.5980    -6.2290 ha         1 TQI       0.147000
     41 H19         -9.7670   -15.5420   -10.4200 ha         1 TQI       0.142000
     42 H23        -11.5650   -17.1960   -10.8430 ha         1 TQI       0.126000
@<TRIPOS>BOND
     1     1     2 1   
     2     1    16 1   
     3     1    30 1   
     4     2     3 1   
     5     2     5 1   
     6     2    31 1   
     7     3     4 1   
     8     3    15 1   
     9     5     6 1   
    10     5    32 1   
    11     5    33 1   
    12     6     7 2   
    13     6     8 1   
    14     7     9 1   
    15     7    34 1   
    16     8    10 ar  
    17     8    11 ar  
    18     9    10 1   
    19     9    35 1   
    20    10    12 ar  
    21    11    13 ar  
    22    11    36 1   
    23    12    14 ar  
    24    12    37 1   
    25    13    14 ar  
    26    13    38 1   
    27    14    39 1   
    28    16    19 1   
    29    16    21 2   
    30    16    22 2   
    31    17    18 1   
    32    17    20 ar  
    33    17    23 ar  
    34    18    25 1   
    35    18    26 1   
    36    18    27 1   
    37    19    20 ar  
    38    19    24 ar  
    39    20    40 1   
    40    23    28 ar  
    41    23    29 1   
    42    24    28 ar  
    43    24    41 1   
    44    28    42 1   
@<TRIPOS>SUBSTRUCTURE
     1 TQI         1 TEMP              0 ****  ****    0 ROOT
