@<TRIPOS>MOLECULE
TQI
   42    44     1     0     0
SMALL
abcg2


@<TRIPOS>ATOM
      1 N           -7.4500   -16.2690    -8.1450 n7         1 TQI      -0.832300
      2 CA          -7.5170   -17.7270    -8.3140 c3         1 TQI       0.049500
      3 C           -8.1600   -18.4100    -7.0810 c          1 TQI       0.695000
      4 O           -7.8420   -17.9160    -5.9790 o          1 TQI      -0.710000
      5 CB          -6.0710   -18.2140    -8.5050 c3         1 TQI       0.021800
      6 CG          -5.9420   -19.6940    -8.6180 cc         1 TQI      -0.104400
      7 CD1         -5.4440   -20.5410    -7.6700 cd         1 TQI      -0.145100
      8 CD2         -6.3410   -20.5210    -9.7180 ca         1 TQI      -0.075800
      9 NE1         -5.5090   -21.8340    -8.1090 na         1 TQI      -0.229700
     10 CE2         -6.0510   -21.8580    -9.3600 ca         1 TQI      -0.047200
     11 CE3         -6.9120   -20.2630   -10.9700 ca         1 TQI      -0.045000
     12 CZ2         -6.3130   -22.9290   -10.2130 ca         1 TQI      -0.138000
     13 CZ3         -7.1730   -21.3220   -11.8180 ca         1 TQI      -0.159000
     14 CH2         -6.8760   -22.6430   -11.4410 ca         1 TQI      -0.105000
     15 OXT         -8.8910   -19.3890    -7.2970 o          1 TQI      -0.710000
     16 S1          -8.7180   -15.3490    -8.6200 sy         1 TQI       1.147600
     17 C2         -11.3920   -16.3030    -5.7690 ca         1 TQI      -0.208300
     18 C3         -11.5290   -16.0880    -4.2880 c3         1 TQI       0.366300
     19 C7         -10.1600   -15.9940    -7.8030 ca         1 TQI      -0.290500
     20 C8         -10.2990   -15.7840    -6.4400 ca         1 TQI       0.066000
     21 O14         -8.9100   -15.5570   -10.0450 o          1 TQI      -0.567500
     22 O15         -8.4800   -14.0100    -8.1080 o          1 TQI      -0.567500
     23 C16        -12.3470   -17.0260    -6.4890 ca         1 TQI       0.210000
     24 C19        -11.1000   -16.7200    -8.5130 ca         1 TQI       0.042000
     25 F20        -10.4910   -15.4170    -3.7870 f          1 TQI      -0.113333
     26 F21        -11.5960   -17.2470    -3.6260 f          1 TQI      -0.113333
     27 F22        -12.6290   -15.3910    -3.9880 f          1 TQI      -0.113333
     28 C23        -12.2030   -17.2330    -7.8500 ca         1 TQI      -0.133000
     29 CL         -13.7380   -17.6830    -5.7150 cl         1 TQI      -0.195000
     30 H           -7.1650   -16.0420    -7.1930 hn         1 TQI       0.495000
     31 HA          -8.0880   -17.9510    -9.2180 h1         1 TQI       0.063700
     32 HB1C        -5.6630   -17.7240    -9.3940 hc         1 TQI       0.038700
     33 HB2C        -5.4760   -17.8620    -7.6570 hc         1 TQI       0.038700
     34 HD1         -5.0400   -20.3120    -6.6960 h4         1 TQI       0.214000
     35 HE1         -5.1890   -22.6370    -7.5940 hn         1 TQI       0.337000
     36 HE3         -7.1460   -19.2490   -11.2710 ha         1 TQI       0.118000
     37 HZ2         -6.0830   -23.9470    -9.9240 ha         1 TQI       0.097000
     38 HZ3         -7.6140   -21.1360   -12.7890 ha         1 TQI       0.097000
     39 HH2         -7.0920   -23.4510   -12.1280 ha         1 TQI       0.092000
     40 H8          -9.5530   -15.2150    -5.9030 ha         1 TQI       0.147000
     41 H19        -10.9910   -16.8900    -9.5750 ha         1 TQI       0.142000
     42 H23        -12.9490   -17.7940    -8.3940 ha         1 TQI       0.126000
@<TRIPOS>BOND
     1     1     2 1   
     2     1    16 1   
     3     1    30 1   
     4     2     3 1   
     5     2     5 1   
     6     2    31 1   
     7     3     4 1   
     8     3    15 1   
     9     5     6 1   
    10     5    32 1   
    11     5    33 1   
    12     6     7 2   
    13     6     8 1   
    14     7     9 1   
    15     7    34 1   
    16     8    10 ar  
    17     8    11 ar  
    18     9    10 1   
    19     9    35 1   
    20    10    12 ar  
    21    11    13 ar  
    22    11    36 1   
    23    12    14 ar  
    24    12    37 1   
    25    13    14 ar  
    26    13    38 1   
    27    14    39 1   
    28    16    19 1   
    29    16    21 2   
    30    16    22 2   
    31    17    18 1   
    32    17    20 ar  
    33    17    23 ar  
    34    18    25 1   
    35    18    26 1   
    36    18    27 1   
    37    19    20 ar  
    38    19    24 ar  
    39    20    40 1   
    40    23    28 ar  
    41    23    29 1   
    42    24    28 ar  
    43    24    41 1   
    44    28    42 1   
@<TRIPOS>SUBSTRUCTURE
     1 TQI         1 TEMP              0 ****  ****    0 ROOT
