@<TRIPOS>MOLECULE
TQJ
   56    58     1     0     0
SMALL
abcg2


@<TRIPOS>ATOM
      1 N1           0.6690     0.4470     0.9760 n3         1 TQJ      -0.726500
      2 S2          -0.8670     0.7960     1.4730 s6         1 TQJ       1.199100
      3 C3           1.2560     1.2670    -0.0810 c6         1 TQJ       0.182800
      4 C4           1.0420    -0.9580     0.8490 c6         1 TQJ       0.182800
      5 C5          -1.9470     0.3130     0.1250 c3         1 TQJ      -0.372400
      6 O6          -1.1500    -0.0620     2.6130 o          1 TQJ      -0.522500
      7 O7          -0.9420     2.2400     1.6370 o          1 TQJ      -0.522500
      8 C8           2.7650     1.1440    -0.0170 c6         1 TQJ       0.217300
      9 C9           2.5540    -1.0880     0.9030 c6         1 TQJ       0.217300
     10 C10         -3.4290     0.3280     0.5060 c3         1 TQJ       0.154700
     11 N11          3.1780    -0.2450    -0.0950 nh         1 TQJ      -0.777300
     12 C12         -4.2770    -0.1630    -0.6680 c3         1 TQJ      -0.080400
     13 N13         -3.8720     1.6170     1.0200 n          1 TQJ      -0.311300
     14 C14          4.3800    -0.5720    -0.6620 ca         1 TQJ       0.634900
     15 C15         -5.7510    -0.3050    -0.3140 c3         1 TQJ      -0.071400
     16 C16         -3.7850     2.7850     0.3550 c          1 TQJ       0.622900
     17 O17         -4.0030     1.7140     2.3820 oh         1 TQJ      -0.422100
     18 C18          5.0100    -1.8160    -0.4520 ca         1 TQJ      -0.233000
     19 N19          4.9390     0.3410    -1.4570 nb         1 TQJ      -0.754000
     20 C20         -6.5530    -0.8940    -1.4780 c3         1 TQJ      -0.116700
     21 O21         -3.4950     2.8840    -0.8220 o          1 TQJ      -0.587100
     22 C22          6.1910    -2.0890    -1.1050 ca         1 TQJ      -0.008000
     23 C23          6.0760     0.0770    -2.0800 ca         1 TQJ       0.423900
     24 C24         -7.9980    -1.0450    -1.1130 ca         1 TQJ       0.131300
     25 C25          6.7400    -1.1270    -1.9450 ca         1 TQJ      -0.138900
     26 N26         -8.8310    -0.0750    -1.4780 nb         1 TQJ      -0.176500
     27 N27         -8.3400    -2.1230    -0.4120 nb         1 TQJ      -0.176500
     28 BR28         8.3540    -1.4410    -2.8620 br         1 TQJ      -0.083100
     29 C29        -10.1020    -0.1980    -1.1130 ca         1 TQJ       0.110900
     30 C30         -9.6110    -2.2340    -0.0520 ca         1 TQJ       0.110900
     31 C31        -10.5590    -1.2800    -0.3830 ca         1 TQJ      -0.222000
     32 H3           0.8990     0.9510    -1.0690 h1         1 TQJ       0.064450
     33 H3A          0.9880     2.3120     0.0640 h1         1 TQJ       0.064450
     34 H4           0.6180    -1.5360     1.6670 h1         1 TQJ       0.064450
     35 H4A          0.6790    -1.3790    -0.0970 h1         1 TQJ       0.064450
     36 H5          -1.7330     0.9740    -0.7150 h1         1 TQJ       0.105200
     37 H5A         -1.6650    -0.7040    -0.1570 h1         1 TQJ       0.105200
     38 H8           3.1960     1.6980    -0.8460 h1         1 TQJ       0.063950
     39 H8A          3.1270     1.5960     0.9150 h1         1 TQJ       0.063950
     40 H9           2.9130    -0.8370     1.9090 h1         1 TQJ       0.063950
     41 H9A          2.7800    -2.1350     0.7200 h1         1 TQJ       0.063950
     42 H10         -3.5740    -0.3760     1.3280 h1         1 TQJ       0.076700
     43 H12         -4.1540     0.4960    -1.5290 hc         1 TQJ       0.059700
     44 H12A        -3.8840    -1.1410    -0.9610 hc         1 TQJ       0.059700
     45 H15         -5.8570    -0.9540     0.5600 hc         1 TQJ       0.049200
     46 H15A        -6.1730     0.6670    -0.0440 hc         1 TQJ       0.049200
     47 H16         -4.0270     3.6440     0.9960 h5         1 TQJ       0.041200
     48 HO17        -4.9220     1.4900     2.5790 ho         1 TQJ       0.448000
     49 H18          4.6030    -2.5630     0.2130 ha         1 TQJ       0.124000
     50 H20         -6.4700    -0.2430    -2.3490 hc         1 TQJ       0.067200
     51 H20A        -6.1420    -1.8700    -1.7440 hc         1 TQJ       0.067200
     52 H22          6.6760    -3.0440    -0.9490 ha         1 TQJ       0.130000
     53 H23          6.4710     0.8650    -2.7130 h4         1 TQJ       0.032100
     54 H29        -10.7770     0.5940    -1.4170 h4         1 TQJ       0.025600
     55 H30         -9.8840    -3.1160     0.5170 h4         1 TQJ       0.025600
     56 H31        -11.5940    -1.3760    -0.0890 ha         1 TQJ       0.136000
@<TRIPOS>BOND
     1     1     2 1   
     2     1     3 1   
     3     1     4 1   
     4     2     5 1   
     5     2     6 2   
     6     2     7 2   
     7     3     8 1   
     8     3    32 1   
     9     3    33 1   
    10     4     9 1   
    11     4    34 1   
    12     4    35 1   
    13     5    10 1   
    14     5    36 1   
    15     5    37 1   
    16     8    11 1   
    17     8    38 1   
    18     8    39 1   
    19     9    11 1   
    20     9    40 1   
    21     9    41 1   
    22    10    12 1   
    23    10    13 1   
    24    10    42 1   
    25    11    14 1   
    26    12    15 1   
    27    12    43 1   
    28    12    44 1   
    29    13    16 1   
    30    13    17 1   
    31    14    18 ar  
    32    14    19 ar  
    33    15    20 1   
    34    15    45 1   
    35    15    46 1   
    36    16    21 2   
    37    16    47 1   
    38    17    48 1   
    39    18    22 ar  
    40    18    49 1   
    41    19    23 ar  
    42    20    24 1   
    43    20    50 1   
    44    20    51 1   
    45    22    25 ar  
    46    22    52 1   
    47    23    25 ar  
    48    23    53 1   
    49    24    26 ar  
    50    24    27 ar  
    51    25    28 1   
    52    26    29 ar  
    53    27    30 ar  
    54    29    31 ar  
    55    29    54 1   
    56    30    31 ar  
    57    30    55 1   
    58    31    56 1   
@<TRIPOS>SUBSTRUCTURE
     1 TQJ         1 TEMP              0 ****  ****    0 ROOT
