@<TRIPOS>MOLECULE
TQJ
   56    58     1     0     0
SMALL
No Charge or Current Charge


@<TRIPOS>ATOM
      1 N1           0.7490     0.4620     1.3490 n3         1 TQJ      -0.726500
      2 S2          -0.8780     0.7650     1.8290 s6         1 TQJ       1.199100
      3 C3           1.2310     1.2780     0.1980 c6         1 TQJ       0.182800
      4 C4           1.1050    -0.9720     1.1480 c6         1 TQJ       0.182800
      5 C5          -1.8600     0.4200     0.3650 c3         1 TQJ      -0.372400
      6 O6          -1.1930    -0.2250     2.8640 o          1 TQJ      -0.522500
      7 O7          -0.9440     2.1930     2.1560 o          1 TQJ      -0.522500
      8 C8           2.7610     1.1180    -0.0520 c6         1 TQJ       0.217300
      9 C9           2.6320    -1.1860     0.9120 c6         1 TQJ       0.217300
     10 C10         -3.3790     0.4210     0.6310 c3         1 TQJ       0.154700
     11 N11          3.1810    -0.3190    -0.1800 nh         1 TQJ      -0.777300
     12 C12         -4.1900    -0.1510    -0.5590 c3         1 TQJ      -0.080400
     13 N13         -3.8920     1.7250     1.1220 n          1 TQJ      -0.311300
     14 C14          4.3720    -0.6610    -0.8470 ca         1 TQJ       0.634900
     15 C15         -5.7070    -0.2960    -0.2870 c3         1 TQJ      -0.071400
     16 C16         -3.8630     2.9360     0.3800 c          1 TQJ       0.622900
     17 O17         -4.3960     1.7360     2.4750 oh         1 TQJ      -0.422100
     18 C18          5.2670    -1.6360    -0.3650 ca         1 TQJ      -0.233000
     19 N19          4.5810     0.0140    -1.9890 nb         1 TQJ      -0.754000
     20 C20         -6.4750    -0.9260    -1.4710 c3         1 TQJ      -0.116700
     21 O21         -3.4410     3.0190    -0.7700 o          1 TQJ      -0.587100
     22 C22          6.4290    -1.9270    -1.0950 ca         1 TQJ      -0.008000
     23 C23          5.7010    -0.2660    -2.6950 ca         1 TQJ       0.423900
     24 C24         -7.9660    -1.0570    -1.1900 ca         1 TQJ       0.131300
     25 C25          6.6460    -1.2240    -2.2870 ca         1 TQJ      -0.138900
     26 N26         -8.7490    -0.0110    -1.5400 nb         1 TQJ      -0.176500
     27 N27         -8.3810    -2.2070    -0.6120 nb         1 TQJ      -0.176500
     28 Br28         8.2080    -1.5640    -3.3400 br         1 TQJ      -0.083100
     29 C29        -10.0680    -0.1290    -1.2860 ca         1 TQJ       0.110900
     30 C30         -9.7010    -2.3170    -0.3610 ca         1 TQJ       0.110900
     31 C31        -10.5970    -1.2850    -0.6870 ca         1 TQJ      -0.222000
     32 H3           0.7040     0.9900    -0.7240 h1         1 TQJ       0.064450
     33 H3A          1.0250     2.3450     0.3640 h1         1 TQJ       0.064450
     34 H4           0.8140    -1.5740     2.0210 h1         1 TQJ       0.064450
     35 H4A          0.5640    -1.3830     0.2820 h1         1 TQJ       0.064450
     36 H5          -1.5910     1.1700    -0.3850 h1         1 TQJ       0.105200
     37 H5A         -1.5450    -0.5690     0.0210 h1         1 TQJ       0.105200
     38 H8           3.0110     1.6950    -0.9530 h1         1 TQJ       0.063950
     39 H8A          3.3000     1.5840     0.7860 h1         1 TQJ       0.063950
     40 H9           3.1630    -0.9790     1.8530 h1         1 TQJ       0.063950
     41 H9A          2.7860    -2.2490     0.6750 h1         1 TQJ       0.063950
     42 H10         -3.5380    -0.2980     1.4480 h1         1 TQJ       0.076700
     43 H12         -4.0390     0.4820    -1.4420 hc         1 TQJ       0.059700
     44 H12A        -3.7840    -1.1380    -0.8140 hc         1 TQJ       0.059700
     45 H15         -5.8560    -0.9130     0.6080 hc         1 TQJ       0.049200
     46 H15A        -6.1370     0.6900    -0.0730 hc         1 TQJ       0.049200
     47 H16         -4.2650     3.7940     0.9520 h5         1 TQJ       0.041200
     48 HO17        -5.3590     1.5460     2.4030 ho         1 TQJ       0.448000
     49 H18          5.0790    -2.1570     0.5670 ha         1 TQJ       0.124000
     50 H20         -6.3140    -0.3160    -2.3690 hc         1 TQJ       0.067200
     51 H20A        -6.0470    -1.9110    -1.6940 hc         1 TQJ       0.067200
     52 H22          7.1400    -2.6730    -0.7450 ha         1 TQJ       0.130000
     53 H23          5.8450     0.2960    -3.6170 h4         1 TQJ       0.032100
     54 H29        -10.7030     0.7100    -1.5650 h4         1 TQJ       0.025600
     55 H30        -10.0410    -3.2410     0.1050 h4         1 TQJ       0.025600
     56 H31        -11.6610    -1.3770    -0.4830 ha         1 TQJ       0.136000
@<TRIPOS>BOND
     1     1     2 1   
     2     1     3 1   
     3     1     4 1   
     4     2     5 1   
     5     2     6 2   
     6     2     7 2   
     7     3     8 1   
     8     3    32 1   
     9     3    33 1   
    10     4     9 1   
    11     4    34 1   
    12     4    35 1   
    13     5    10 1   
    14     5    36 1   
    15     5    37 1   
    16     8    11 1   
    17     8    38 1   
    18     8    39 1   
    19     9    11 1   
    20     9    40 1   
    21     9    41 1   
    22    10    12 1   
    23    10    13 1   
    24    10    42 1   
    25    11    14 1   
    26    12    15 1   
    27    12    43 1   
    28    12    44 1   
    29    13    16 1   
    30    13    17 1   
    31    14    18 ar  
    32    14    19 ar  
    33    15    20 1   
    34    15    45 1   
    35    15    46 1   
    36    16    21 2   
    37    16    47 1   
    38    17    48 1   
    39    18    22 ar  
    40    18    49 1   
    41    19    23 ar  
    42    20    24 1   
    43    20    50 1   
    44    20    51 1   
    45    22    25 ar  
    46    22    52 1   
    47    23    25 ar  
    48    23    53 1   
    49    24    26 ar  
    50    24    27 ar  
    51    25    28 1   
    52    26    29 ar  
    53    27    30 ar  
    54    29    31 ar  
    55    29    54 1   
    56    30    31 ar  
    57    30    55 1   
    58    31    56 1   
@<TRIPOS>SUBSTRUCTURE
     1 TQJ         1 TEMP              0 ****  ****    0 ROOT
