@<TRIPOS>MOLECULE
TQK
   34    36     1     0     0
SMALL
No Charge or Current Charge


@<TRIPOS>ATOM
      1 C01        -21.3350   -20.8810    -4.0370 c          1 TQK       0.582500
      2 C02        -22.2360   -21.2120    -2.8690 ca         1 TQK      -0.200600
      3 C03        -23.4420   -21.9090    -3.1040 ca         1 TQK      -0.043000
      4 C04        -24.2990   -22.2350    -2.0410 ca         1 TQK      -0.133000
      5 C05        -23.9660   -21.8750    -0.7260 ca         1 TQK       0.029800
      6 C07        -24.4510   -22.7450     1.5420 cc         1 TQK       0.470000
      7 C08        -23.1500   -23.3510     1.8800 ca         1 TQK      -0.129500
      8 C09        -22.3700   -24.0220     0.9090 ca         1 TQK      -0.082500
      9 C10        -21.1520   -24.6280     1.2610 ca         1 TQK      -0.116500
     10 C11        -20.7050   -24.5940     2.5910 ca         1 TQK      -0.100000
     11 C12        -21.4870   -23.9640     3.5720 ca         1 TQK      -0.116500
     12 C13        -22.7050   -23.3570     3.2210 ca         1 TQK      -0.082500
     13 C15        -26.5100   -22.0610     1.6720 cd         1 TQK       0.236900
     14 C16        -26.1220   -21.7590     0.3900 cc         1 TQK      -0.216000
     15 C17        -22.7740   -21.1670    -0.4870 ca         1 TQK      -0.123000
     16 C18        -21.9020   -20.8360    -1.5430 ca         1 TQK      -0.016300
     17 C19        -20.6160   -20.0790    -1.2220 c3         1 TQK      -0.057800
     18 N06        -24.8260   -22.2050     0.3230 na         1 TQK      -0.079300
     19 N14        -25.4790   -22.6610     2.3800 nd         1 TQK      -0.662000
     20 O1         -21.5980   -21.1910    -5.1950 o          1 TQK      -0.515100
     21 H1         -20.3970   -20.3300    -3.8100 h4         1 TQK      -0.005800
     22 H3         -23.7200   -22.2050    -4.1140 ha         1 TQK       0.140000
     23 H4         -25.2210   -22.7770    -2.2420 ha         1 TQK       0.134000
     24 H5         -22.7060   -24.0910    -0.1230 ha         1 TQK       0.124000
     25 H6         -20.5570   -25.1330     0.5030 ha         1 TQK       0.115500
     26 H7         -19.7630   -25.0650     2.8630 ha         1 TQK       0.114000
     27 H8         -21.1500   -23.9470     4.6070 ha         1 TQK       0.115500
     28 H9         -23.3000   -22.8770     3.9960 ha         1 TQK       0.124000
     29 H10        -27.4720   -21.8670     2.1310 h4         1 TQK       0.041100
     30 H11        -26.6400   -21.2670    -0.4220 h4         1 TQK       0.162000
     31 H12        -22.5210   -20.8730     0.5290 ha         1 TQK       0.136000
     32 H13        -20.5860   -19.1130    -1.7390 hc         1 TQK       0.051700
     33 H14        -20.5200   -19.8750    -0.1490 hc         1 TQK       0.051700
     34 H15        -19.7330   -20.6560    -1.5210 hc         1 TQK       0.051700
@<TRIPOS>BOND
     1     1     2 1   
     2     1    20 2   
     3     1    21 1   
     4     2     3 ar  
     5     2    16 ar  
     6     3     4 ar  
     7     3    22 1   
     8     4     5 ar  
     9     4    23 1   
    10     5    15 ar  
    11     5    18 1   
    12     6     7 1   
    13     6    18 1   
    14     6    19 2   
    15     7     8 ar  
    16     7    12 ar  
    17     8     9 ar  
    18     8    24 1   
    19     9    10 ar  
    20     9    25 1   
    21    10    11 ar  
    22    10    26 1   
    23    11    12 ar  
    24    11    27 1   
    25    12    28 1   
    26    13    14 2   
    27    13    19 1   
    28    13    29 1   
    29    14    18 1   
    30    14    30 1   
    31    15    16 ar  
    32    15    31 1   
    33    16    17 1   
    34    17    32 1   
    35    17    33 1   
    36    17    34 1   
@<TRIPOS>SUBSTRUCTURE
     1 TQK         1 TEMP              0 ****  ****    0 ROOT
