@<TRIPOS>MOLECULE
TQK
   34    36     1     0     0
SMALL
bcc


@<TRIPOS>ATOM
      1 C01        -21.3580   -20.8830    -3.9720 c          1 TQK       0.582500
      2 C02        -22.2270   -21.2030    -2.8250 ca         1 TQK      -0.200600
      3 C03        -23.4230   -21.8820    -3.0590 ca         1 TQK      -0.061000
      4 C04        -24.2690   -22.2120    -2.0200 ca         1 TQK      -0.151000
      5 C05        -23.9130   -21.8480    -0.7280 ca         1 TQK       0.029800
      6 C07        -24.4670   -22.7680     1.5310 cc         1 TQK       0.470000
      7 C08        -23.1730   -23.3760     1.8490 ca         1 TQK      -0.129500
      8 C09        -22.4510   -24.1120     0.9080 ca         1 TQK      -0.100500
      9 C10        -21.2430   -24.6980     1.2550 ca         1 TQK      -0.134500
     10 C11        -20.7440   -24.5630     2.5440 ca         1 TQK      -0.118000
     11 C12        -21.4640   -23.8440     3.4890 ca         1 TQK      -0.134500
     12 C13        -22.6710   -23.2560     3.1450 ca         1 TQK      -0.100500
     13 C15        -26.5140   -22.1570     1.6570 cd         1 TQK       0.302200
     14 C16        -26.0920   -21.7750     0.4210 cc         1 TQK      -0.248600
     15 C17        -22.7330   -21.1600    -0.4820 ca         1 TQK      -0.141000
     16 C18        -21.8690   -20.8330    -1.5200 ca         1 TQK      -0.016300
     17 C19        -20.6020   -20.0860    -1.2080 c3         1 TQK      -0.057800
     18 N06        -24.7760   -22.1620     0.3450 na         1 TQK      -0.130000
     19 N14        -25.5020   -22.7720     2.3330 nd         1 TQK      -0.662000
     20 O1         -21.6190   -21.1700    -5.1170 o          1 TQK      -0.515100
     21 H1         -20.4240   -20.3500    -3.7340 h4         1 TQK      -0.005800
     22 H3         -23.6880   -22.1640    -4.0700 ha         1 TQK       0.158000
     23 H4         -25.1860   -22.7560    -2.2040 ha         1 TQK       0.152000
     24 H5         -22.8370   -24.2510    -0.0940 ha         1 TQK       0.142000
     25 H6         -20.6960   -25.2690     0.5170 ha         1 TQK       0.133500
     26 H7         -19.8000   -25.0200     2.8120 ha         1 TQK       0.132000
     27 H8         -21.0840   -23.7380     4.4970 ha         1 TQK       0.133500
     28 H9         -23.2250   -22.6900     3.8820 ha         1 TQK       0.142000
     29 H10        -27.4920   -22.0220     2.0910 h4         1 TQK       0.041100
     30 H11        -26.5790   -21.2510    -0.3850 h4         1 TQK       0.180000
     31 H12        -22.4860   -20.8670     0.5300 ha         1 TQK       0.154000
     32 H13        -20.5600   -19.1270    -1.7250 hc         1 TQK       0.051700
     33 H14        -20.5280   -19.8890    -0.1400 hc         1 TQK       0.051700
     34 H15        -19.7170   -20.6530    -1.4990 hc         1 TQK       0.051700
@<TRIPOS>BOND
     1     1     2 1   
     2     1    20 2   
     3     1    21 1   
     4     2     3 ar  
     5     2    16 ar  
     6     3     4 ar  
     7     3    22 1   
     8     4     5 ar  
     9     4    23 1   
    10     5    15 ar  
    11     5    18 1   
    12     6     7 1   
    13     6    18 1   
    14     6    19 2   
    15     7     8 ar  
    16     7    12 ar  
    17     8     9 ar  
    18     8    24 1   
    19     9    10 ar  
    20     9    25 1   
    21    10    11 ar  
    22    10    26 1   
    23    11    12 ar  
    24    11    27 1   
    25    12    28 1   
    26    13    14 2   
    27    13    19 1   
    28    13    29 1   
    29    14    18 1   
    30    14    30 1   
    31    15    16 ar  
    32    15    31 1   
    33    16    17 1   
    34    17    32 1   
    35    17    33 1   
    36    17    34 1   
@<TRIPOS>SUBSTRUCTURE
     1 TQK         1 TEMP              0 ****  ****    0 ROOT
