@<TRIPOS>MOLECULE
TQL
   27    28     1     0     0
SMALL
No Charge or Current Charge


@<TRIPOS>ATOM
      1 CAM         -1.6300     1.2610    -0.7560 ca         1 TQL      -0.047000
      2 CAN         -2.7800     2.0390    -0.9660 ca         1 TQL      -0.167000
      3 CAO         -3.9810     1.6690    -0.3430 ca         1 TQL       0.343900
      4 NAP         -4.0890     0.5800     0.4520 nb         1 TQL      -0.665000
      5 CAQ         -2.9800    -0.1710     0.6520 ca         1 TQL       0.365900
      6 CAL         -1.7230     0.1400     0.0950 ca         1 TQL      -0.211900
      7 CAI         -0.5600    -0.7680     0.3280 ce         1 TQL       0.530500
      8 NAJ         -0.7510    -2.0200     0.6370 n2         1 TQL      -0.404700
      9 OAK         -1.0280    -2.8700    -0.4550 oh         1 TQL      -0.484000
     10 CAH          0.8330    -0.2320     0.2120 ca         1 TQL      -0.294900
     11 CAG          1.1340     1.0300     0.7700 ca         1 TQL       0.004000
     12 CAF          2.4400     1.5420     0.7080 ca         1 TQL      -0.260000
     13 CAD          3.4580     0.7960     0.1060 ca         1 TQL       0.201100
     14 OAE          4.7230     1.2900     0.0450 oh         1 TQL      -0.525100
     15 CAC          3.1780    -0.4650    -0.4280 ca         1 TQL      -0.215000
     16 CAB          1.8790    -0.9830    -0.3670 ca         1 TQL       0.236100
     17 OAA          1.6480    -2.2100    -0.9050 oh         1 TQL      -0.541100
     18 HAM         -0.6980     1.5240    -1.2520 ha         1 TQL       0.126000
     19 HAN         -2.7480     2.9140    -1.6090 ha         1 TQL       0.127000
     20 HAO         -4.8870     2.2560    -0.4900 h4         1 TQL       0.021100
     21 HAQ         -3.1110    -1.0400     1.2960 h4         1 TQL       0.026100
     22 HAK         -1.2910    -3.7400    -0.0580 ho         1 TQL       0.469000
     23 HAG          0.3570     1.6160     1.2580 ha         1 TQL       0.118000
     24 HAF          2.6500     2.5190     1.1370 ha         1 TQL       0.120000
     25 HAE          4.7240     2.1740     0.4680 ho         1 TQL       0.470000
     26 HAC          3.9710    -1.0450    -0.8890 ha         1 TQL       0.147000
     27 HAA          0.7100    -2.4480    -0.6860 ho         1 TQL       0.510000
@<TRIPOS>BOND
     1     1     2 ar  
     2     1     6 ar  
     3     1    18 1   
     4     2     3 ar  
     5     2    19 1   
     6     3     4 ar  
     7     3    20 1   
     8     4     5 ar  
     9     5     6 ar  
    10     5    21 1   
    11     6     7 1   
    12     7     8 2   
    13     7    10 1   
    14     8     9 1   
    15     9    22 1   
    16    10    11 ar  
    17    10    16 ar  
    18    11    12 ar  
    19    11    23 1   
    20    12    13 ar  
    21    12    24 1   
    22    13    14 1   
    23    13    15 ar  
    24    14    25 1   
    25    15    16 ar  
    26    15    26 1   
    27    16    17 1   
    28    17    27 1   
@<TRIPOS>SUBSTRUCTURE
     1 TQL         1 TEMP              0 ****  ****    0 ROOT
