@<TRIPOS>MOLECULE
TQL
   27    28     1     0     0
SMALL
abcg2


@<TRIPOS>ATOM
      1 CAM         -2.0380     0.9070    -1.2000 ca         1 TQL      -0.047000
      2 CAN         -3.1380     1.7330    -1.0350 ca         1 TQL      -0.167000
      3 CAO         -3.7880     1.7340     0.1900 ca         1 TQL       0.343900
      4 NAP         -3.4070     0.9830     1.2160 nb         1 TQL      -0.665000
      5 CAQ         -2.3530     0.1950     1.0530 ca         1 TQL       0.365900
      6 CAL         -1.6300     0.1190    -0.1320 ca         1 TQL      -0.211900
      7 CAI         -0.4640    -0.7910    -0.2450 ce         1 TQL       0.530500
      8 NAJ         -0.6040    -2.0280    -0.5400 n2         1 TQL      -0.404700
      9 OAK         -1.8850    -2.4230    -0.7480 oh         1 TQL      -0.484000
     10 CAH          0.8850    -0.2730    -0.0120 ca         1 TQL      -0.294900
     11 CAG          1.0770     1.0660     0.3370 ca         1 TQL       0.004000
     12 CAF          2.3270     1.6030     0.5640 ca         1 TQL      -0.260000
     13 CAD          3.4490     0.7810     0.4420 ca         1 TQL       0.201100
     14 OAE          4.6980     1.2310     0.6450 oh         1 TQL      -0.525100
     15 CAC          3.2990    -0.5560     0.1000 ca         1 TQL      -0.215000
     16 CAB          2.0350    -1.0900    -0.1260 ca         1 TQL       0.236100
     17 OAA          1.9690    -2.3830    -0.4480 oh         1 TQL      -0.541100
     18 HAM         -1.5030     0.8800    -2.1410 ha         1 TQL       0.126000
     19 HAN         -3.4870     2.3650    -1.8400 ha         1 TQL       0.127000
     20 HAO         -4.6520     2.3700     0.3480 h4         1 TQL       0.021100
     21 HAQ         -2.0590    -0.4070     1.9070 h4         1 TQL       0.026100
     22 HAK         -1.8140    -3.3620    -0.9510 ho         1 TQL       0.469000
     23 HAG          0.2180     1.7160     0.4350 ha         1 TQL       0.118000
     24 HAF          2.4300     2.6470     0.8310 ha         1 TQL       0.120000
     25 HAE          4.6860     2.1660     0.8770 ho         1 TQL       0.470000
     26 HAC          4.1690    -1.1940     0.0060 ha         1 TQL       0.147000
     27 HAA          1.0250    -2.6300    -0.5720 ho         1 TQL       0.510000
@<TRIPOS>BOND
     1     1     2 ar  
     2     1     6 ar  
     3     1    18 1   
     4     2     3 ar  
     5     2    19 1   
     6     3     4 ar  
     7     3    20 1   
     8     4     5 ar  
     9     5     6 ar  
    10     5    21 1   
    11     6     7 1   
    12     7     8 2   
    13     7    10 1   
    14     8     9 1   
    15     9    22 1   
    16    10    11 ar  
    17    10    16 ar  
    18    11    12 ar  
    19    11    23 1   
    20    12    13 ar  
    21    12    24 1   
    22    13    14 1   
    23    13    15 ar  
    24    14    25 1   
    25    15    16 ar  
    26    15    26 1   
    27    16    17 1   
    28    17    27 1   
@<TRIPOS>SUBSTRUCTURE
     1 TQL         1 TEMP              0 ****  ****    0 ROOT
