@<TRIPOS>MOLECULE
TQM
   39    42     1     0     0
SMALL
No Charge or Current Charge


@<TRIPOS>ATOM
      1 C13         15.8040    21.2260    12.4170 ca         1 TQM      -0.107800
      2 C15         13.7910    21.4530    16.3450 ca         1 TQM      -0.120000
      3 C16         13.0350    21.7020    17.5040 ca         1 TQM      -0.087000
      4 C17         11.6620    21.4070    17.5210 ca         1 TQM      -0.167000
      5 C18         11.0540    20.8650    16.3800 ca         1 TQM       0.163000
      6 C22         19.0540    21.5740     8.8410 cg         1 TQM      -0.128000
      7 C23         20.0710    21.9040     7.9070 cc         1 TQM      -0.054000
      8 C24         20.7170    21.0320     7.0690 cd         1 TQM      -0.142000
      9 O01         17.2090    24.8670    10.6950 o          1 TQM      -0.715000
     10 O03         15.9490    24.8650    12.4410 o          1 TQM      -0.715000
     11 C04         17.6010    23.1790    12.3040 c3         1 TQM      -0.189200
     12 C05         16.9220    21.9280    11.8070 cc         1 TQM       0.041600
     13 C06         17.1990    21.1680    10.6730 cd         1 TQM       0.085400
     14 O07         16.3500    20.0950    10.5770 os         1 TQM      -0.176200
     15 C08         15.5040    20.1360    11.6380 ca         1 TQM       0.084100
     16 C09         14.4700    19.2510    11.9490 ca         1 TQM      -0.130000
     17 C10         13.7200    19.5120    13.1150 ca         1 TQM      -0.080000
     18 C11         14.0030    20.6390    13.9480 cp         1 TQM      -0.104000
     19 C12         15.0710    21.5080    13.5780 ca         1 TQM       0.001000
     20 C14         13.1950    20.9040    15.1810 cp         1 TQM       0.026000
     21 C19         11.8080    20.6150    15.2230 ca         1 TQM      -0.150000
     22 C25         21.6910    21.6620     6.2460 cd         1 TQM      -0.133000
     23 C26         21.7910    23.0150     6.4550 cc         1 TQM      -0.275000
     24 S27         20.6600    23.5520     7.6990 ss         1 TQM       0.244000
     25 H1          14.8550    21.6740    16.3570 ha         1 TQM       0.124000
     26 H2          13.5140    22.1200    18.3880 ha         1 TQM       0.110000
     27 H3          11.0710    21.5980    18.4130 ha         1 TQM       0.121000
     28 H4          20.5050    19.9680     7.0370 ha         1 TQM       0.135000
     29 H6          17.5540    23.1440    13.3980 hc         1 TQM       0.041700
     30 H7          18.6270    23.1520    11.9210 hc         1 TQM       0.041700
     31 H8          14.2560    18.3940    11.3160 ha         1 TQM       0.119000
     32 H9          12.9190    18.8270    13.3820 ha         1 TQM       0.102000
     33 H10         15.3090    22.3870    14.1720 ha         1 TQM       0.138000
     34 H11         11.3070    20.2070    14.3500 ha         1 TQM       0.132000
     35 H12         22.2970    21.1240     5.5230 ha         1 TQM       0.122000
     36 H13         22.4400    23.7370     5.9760 h4         1 TQM       0.140000
     37 C21         18.1860    21.3530     9.6700 ch         1 TQM      -0.038300
     38 C02         16.8890    24.4340    11.7910 c          1 TQM       0.729000
     39 F20          9.7330    20.5850    16.3940 f          1 TQM      -0.191000
@<TRIPOS>BOND
     1     1    12 1   
     2     1    15 ar  
     3     1    19 ar  
     4     2     3 ar  
     5     2    20 ar  
     6     2    25 1   
     7     3     4 ar  
     8     3    26 1   
     9     4     5 ar  
    10     4    27 1   
    11     5    21 ar  
    12     5    39 1   
    13     6     7 1   
    14     6    37 3   
    15     7     8 2   
    16     7    24 1   
    17     8    22 1   
    18     8    28 1   
    19     9    38 1   
    20    10    38 1   
    21    11    12 1   
    22    11    29 1   
    23    11    30 1   
    24    11    38 1   
    25    12    13 2   
    26    13    14 1   
    27    13    37 1   
    28    14    15 1   
    29    15    16 ar  
    30    16    17 ar  
    31    16    31 1   
    32    17    18 ar  
    33    17    32 1   
    34    18    19 ar  
    35    18    20 1   
    36    19    33 1   
    37    20    21 ar  
    38    21    34 1   
    39    22    23 2   
    40    22    35 1   
    41    23    24 1   
    42    23    36 1   
@<TRIPOS>SUBSTRUCTURE
     1 TQM         1 TEMP              0 ****  ****    0 ROOT
