@<TRIPOS>MOLECULE
TQM
   39    42     1     0     0
SMALL
bcc


@<TRIPOS>ATOM
      1 C13         15.9220    21.2760    12.5340 ca         1 TQM      -0.107800
      2 C15         13.7150    21.4240    16.3030 ca         1 TQM      -0.138000
      3 C16         12.8710    21.6710    17.3750 ca         1 TQM      -0.105000
      4 C17         11.5140    21.3900    17.2910 ca         1 TQM      -0.185000
      5 C18         11.0370    20.8610    16.1080 ca         1 TQM       0.127900
      6 C22         19.1460    21.5900     8.9890 cg         1 TQM      -0.128000
      7 C23         20.1000    21.8370     7.9890 cc         1 TQM       0.090900
      8 C24         20.3120    21.1420     6.8250 cd         1 TQM      -0.160000
      9 O01         15.6930    24.3190    11.3210 o          1 TQM      -0.820300
     10 O03         17.1850    25.5920    12.3910 o          1 TQM      -0.820300
     11 C04         17.5990    23.2640    12.3170 c3         1 TQM      -0.189200
     12 C05         17.0050    21.9730    11.9040 cc         1 TQM       0.041600
     13 C06         17.3530    21.1920    10.8460 cd         1 TQM       0.085400
     14 O07         16.5810    20.0600    10.7570 os         1 TQM      -0.176200
     15 C08         15.7120    20.1180    11.7840 ca         1 TQM       0.084100
     16 C09         14.7280    19.1930    12.0860 ca         1 TQM      -0.148000
     17 C10         13.9340    19.4720    13.1840 ca         1 TQM      -0.098000
     18 C11         14.1070    20.6340    13.9620 cp         1 TQM      -0.104000
     19 C12         15.1080    21.5390    13.6330 ca         1 TQM      -0.017000
     20 C14         13.2170    20.8900    15.1130 cp         1 TQM       0.026000
     21 C19         11.8530    20.6070    15.0240 ca         1 TQM      -0.168000
     22 C25         21.3630    21.6870     6.0500 cd         1 TQM      -0.151000
     23 C26         21.9320    22.7810     6.6300 cc         1 TQM      -0.148100
     24 S27         21.2000    23.1650     8.1260 ss         1 TQM      -0.045800
     25 H1          14.7730    21.6310    16.4000 ha         1 TQM       0.142000
     26 H2          13.2730    22.0800    18.2920 ha         1 TQM       0.128000
     27 H3          10.8460    21.5790    18.1210 ha         1 TQM       0.139000
     28 H4          19.7310    20.2750     6.5430 ha         1 TQM       0.153000
     29 H6          17.7820    23.2550    13.3960 hc         1 TQM       0.041700
     30 H7          18.5810    23.3930    11.8510 hc         1 TQM       0.041700
     31 H8          14.5850    18.2950    11.5010 ha         1 TQM       0.137000
     32 H9          13.1650    18.7610    13.4580 ha         1 TQM       0.120000
     33 H10         15.2410    22.4470    14.2090 ha         1 TQM       0.156000
     34 H11         11.4230    20.2130    14.1110 ha         1 TQM       0.150000
     35 H12         21.6830    21.2830     5.1010 ha         1 TQM       0.140000
     36 H13         22.7450    23.3840     6.2550 h4         1 TQM       0.158000
     37 C21         18.3200    21.3870     9.8490 ch         1 TQM      -0.038300
     38 C02         16.7320    24.5110    11.9740 c          1 TQM       0.939600
     39 F20          9.7260    20.5920    15.9980 f          1 TQM      -0.155900
@<TRIPOS>BOND
     1     1    12 1   
     2     1    15 ar  
     3     1    19 ar  
     4     2     3 ar  
     5     2    20 ar  
     6     2    25 1   
     7     3     4 ar  
     8     3    26 1   
     9     4     5 ar  
    10     4    27 1   
    11     5    21 ar  
    12     5    39 1   
    13     6     7 1   
    14     6    37 3   
    15     7     8 2   
    16     7    24 1   
    17     8    22 1   
    18     8    28 1   
    19     9    38 1   
    20    10    38 1   
    21    11    12 1   
    22    11    29 1   
    23    11    30 1   
    24    11    38 1   
    25    12    13 2   
    26    13    14 1   
    27    13    37 1   
    28    14    15 1   
    29    15    16 ar  
    30    16    17 ar  
    31    16    31 1   
    32    17    18 ar  
    33    17    32 1   
    34    18    19 ar  
    35    18    20 1   
    36    19    33 1   
    37    20    21 ar  
    38    21    34 1   
    39    22    23 2   
    40    22    35 1   
    41    23    24 1   
    42    23    36 1   
@<TRIPOS>SUBSTRUCTURE
     1 TQM         1 TEMP              0 ****  ****    0 ROOT
