@<TRIPOS>MOLECULE
TQO
   51    53     1     0     0
SMALL
abcg2


@<TRIPOS>ATOM
      1 C10          6.6840     7.0490    17.4180 c6         1 TQO      -0.044700
      2 C11          4.2280     6.2560    17.3570 c3         1 TQO      -0.044100
      3 C13          7.1160     6.0220    16.3650 c3         1 TQO      -0.200400
      4 C17          6.3750     6.0630    15.0140 c          1 TQO       0.702000
      5 C18          3.1940     4.4330    18.7550 ca         1 TQO      -0.113500
      6 C19          1.9310     6.4390    18.4090 ca         1 TQO      -0.113500
      7 C22          2.1780     3.9250    19.5560 ca         1 TQO      -0.120000
      8 C23          0.9080     5.9360    19.2090 ca         1 TQO      -0.120000
      9 C24          1.0300     4.6780    19.7890 ca         1 TQO      -0.136000
     10 C1           6.2290     7.9600    20.2310 c6         1 TQO       0.385000
     11 C2           5.0820     7.6730    19.2600 c6         1 TQO      -0.119400
     12 C3           7.4770     8.3600    19.4630 c6         1 TQO      -0.055400
     13 O4           5.9170     9.0460    21.1010 os         1 TQO      -0.473000
     14 O5           6.5690     6.8080    21.0000 os         1 TQO      -0.473000
     15 C6           5.4500     6.6070    18.2250 c6         1 TQO      -0.035700
     16 C7           7.8410     7.3430    18.3830 c6         1 TQO      -0.070400
     17 C8           4.8750     8.7650    22.0400 c6         1 TQO       0.163100
     18 C9           5.5580     6.4020    21.9240 c6         1 TQO       0.163100
     19 C12          5.1940     7.5320    22.8930 c6         1 TQO      -0.119000
     20 C14          3.0890     5.6990    18.1730 ca         1 TQO      -0.048300
     21 O20          6.1140     4.9550    14.4710 o          1 TQO      -0.741500
     22 O21          6.1240     7.1950    14.5250 o          1 TQO      -0.741500
     23 H101         6.4340     7.9770    16.8910 hc         1 TQO       0.070700
     24 H112         4.5230     5.5170    16.6120 hc         1 TQO       0.084200
     25 H111         3.8960     7.1460    16.8180 hc         1 TQO       0.084200
     26 H132         7.0580     5.0110    16.7770 hc         1 TQO       0.023200
     27 H131         8.1700     6.1980    16.1220 hc         1 TQO       0.023200
     28 H152         3.6610     7.9380    24.3740 hc         1 TQO       0.033700
     29 H153         3.1100     6.9230    23.0330 hc         1 TQO       0.033700
     30 H151         4.1510     6.2430    24.2920 hc         1 TQO       0.033700
     31 H163         6.1060     8.6380    24.5200 hc         1 TQO       0.033700
     32 H162         6.6120     6.9440    24.4280 hc         1 TQO       0.033700
     33 H161         7.2540     8.1240    23.2770 hc         1 TQO       0.033700
     34 H221         2.2810     2.9420    19.9980 ha         1 TQO       0.098500
     35 H231         0.0180     6.5300    19.3820 ha         1 TQO       0.098500
     36 H241         0.2370     4.2860    20.4150 ha         1 TQO       0.096000
     37 H21          4.8380     8.6110    18.7520 hc         1 TQO       0.046700
     38 H22          4.1870     7.3690    19.7980 hc         1 TQO       0.046700
     39 H31          8.2960     8.4880    20.1750 hc         1 TQO       0.048200
     40 H32          7.2780     9.3320    19.0060 hc         1 TQO       0.048200
     41 H61          5.7310     5.6970    18.7660 hc         1 TQO       0.042700
     42 H72          8.1570     6.4070    18.8540 hc         1 TQO       0.039700
     43 H71          8.6990     7.7140    17.8160 hc         1 TQO       0.039700
     44 H82          4.7900     9.6560    22.6640 h1         1 TQO       0.045700
     45 H81          3.9220     8.6240    21.5190 h1         1 TQO       0.045700
     46 H92          4.6660     6.0630    21.3870 h1         1 TQO       0.045700
     47 H91          5.9720     5.5490    22.4630 h1         1 TQO       0.045700
     48 H181         4.0860     3.8410    18.5810 ha         1 TQO       0.116500
     49 C15          3.9540     7.1350    23.6930 c3         1 TQO      -0.077100
     50 C16          6.3650     7.8280    23.8350 c3         1 TQO      -0.077100
     51 H191         1.8330     7.4240    17.9670 ha         1 TQO       0.116500
@<TRIPOS>BOND
     1     1     3 1   
     2     1    15 1   
     3     1    16 1   
     4     1    23 1   
     5     2    15 1   
     6     2    20 1   
     7     2    24 1   
     8     2    25 1   
     9     3     4 1   
    10     3    26 1   
    11     3    27 1   
    12     4    21 1   
    13     4    22 1   
    14     5     7 ar  
    15     5    20 ar  
    16     5    48 1   
    17     6     8 ar  
    18     6    20 ar  
    19     6    51 1   
    20     7     9 ar  
    21     7    34 1   
    22     8     9 ar  
    23     8    35 1   
    24     9    36 1   
    25    10    11 1   
    26    10    12 1   
    27    10    13 1   
    28    10    14 1   
    29    11    15 1   
    30    11    37 1   
    31    11    38 1   
    32    12    16 1   
    33    12    39 1   
    34    12    40 1   
    35    13    17 1   
    36    14    18 1   
    37    15    41 1   
    38    16    42 1   
    39    16    43 1   
    40    17    19 1   
    41    17    44 1   
    42    17    45 1   
    43    18    19 1   
    44    18    46 1   
    45    18    47 1   
    46    19    49 1   
    47    19    50 1   
    48    28    49 1   
    49    29    49 1   
    50    30    49 1   
    51    31    50 1   
    52    32    50 1   
    53    33    50 1   
@<TRIPOS>SUBSTRUCTURE
     1 TQO         1 TEMP              0 ****  ****    0 ROOT
