@<TRIPOS>MOLECULE
TQO
   51    53     1     0     0
SMALL
No Charge or Current Charge


@<TRIPOS>ATOM
      1 C10          6.6490     7.0160    17.3710 c6         1 TQO      -0.044700
      2 C11          4.2040     6.0730    17.3520 c3         1 TQO      -0.044100
      3 C13          7.1730     5.9880    16.2980 c3         1 TQO      -0.200400
      4 C17          6.7370     6.3600    14.8650 c          1 TQO       0.702000
      5 C18          3.0920     4.4030    18.9200 ca         1 TQO      -0.113500
      6 C19          1.8050     6.3300    18.1790 ca         1 TQO      -0.113500
      7 C22          1.9970     3.9650    19.6840 ca         1 TQO      -0.120000
      8 C23          0.7100     5.8910    18.9430 ca         1 TQO      -0.120000
      9 C24          0.8060     4.7090    19.6960 ca         1 TQO      -0.136000
     10 C1           6.1750     7.9830    20.2260 c6         1 TQO       0.385000
     11 C2           5.0110     7.5810    19.2670 c6         1 TQO      -0.119400
     12 C3           7.3550     8.4970    19.3630 c6         1 TQO      -0.055400
     13 O4           5.7910     9.0530    21.1210 os         1 TQO      -0.473000
     14 O5           6.6450     6.8740    21.0290 os         1 TQO      -0.473000
     15 C6           5.4320     6.5010    18.2210 c6         1 TQO      -0.035700
     16 C7           7.8110     7.4560    18.3110 c6         1 TQO      -0.070400
     17 C8           4.8020     8.7080    22.1180 c6         1 TQO       0.163100
     18 C9           5.7110     6.3780    22.0130 c6         1 TQO       0.163100
     19 C12          5.2920     7.5150    22.9840 c6         1 TQO      -0.119000
     20 C14          3.0040     5.5890    18.1640 ca         1 TQO      -0.048300
     21 O20          5.7090     5.8750    14.4200 o          1 TQO      -0.741500
     22 O21          7.4230     7.1610    14.2480 o          1 TQO      -0.741500
     23 H101         6.3260     7.9110    16.8180 hc         1 TQO       0.070700
     24 H112         4.4900     5.2620    16.6750 hc         1 TQO       0.084200
     25 H111         3.9080     6.9050    16.7020 hc         1 TQO       0.084200
     26 H132         6.7940     4.9950    16.5660 hc         1 TQO       0.023200
     27 H131         8.2690     6.0270    16.3290 hc         1 TQO       0.023200
     28 H152         3.8230     7.8190    24.6040 hc         1 TQO       0.033700
     29 H153         3.2700     6.7080    23.3440 hc         1 TQO       0.033700
     30 H151         4.4670     6.1720    24.5300 hc         1 TQO       0.033700
     31 H163         6.2090     8.7510    24.5720 hc         1 TQO       0.033700
     32 H162         6.8530     7.1040    24.4960 hc         1 TQO       0.033700
     33 H161         7.3400     8.3010    23.2920 hc         1 TQO       0.033700
     34 H221         2.0720     3.0500    20.2670 ha         1 TQO       0.098500
     35 H231        -0.2120     6.4690    18.9530 ha         1 TQO       0.098500
     36 H241        -0.0420     4.3710    20.2880 ha         1 TQO       0.096000
     37 H21          4.6560     8.4770    18.7400 hc         1 TQO       0.046700
     38 H22          4.1520     7.2220    19.8440 hc         1 TQO       0.046700
     39 H31          8.2010     8.7560    20.0140 hc         1 TQO       0.048200
     40 H32          7.0620     9.4250    18.8550 hc         1 TQO       0.048200
     41 H61          5.7500     5.6010    18.7650 hc         1 TQO       0.042700
     42 H72          8.2300     6.5760    18.8210 hc         1 TQO       0.039700
     43 H71          8.6300     7.8870    17.7190 hc         1 TQO       0.039700
     44 H82          4.6210     9.5860    22.7550 h1         1 TQO       0.045700
     45 H81          3.8520     8.4620    21.6240 h1         1 TQO       0.045700
     46 H92          4.8310     5.9570    21.5060 h1         1 TQO       0.045700
     47 H91          6.1880     5.5610    22.5720 h1         1 TQO       0.045700
     48 H181         4.0110     3.8220    18.9180 ha         1 TQO       0.116500
     49 C15          4.1480     7.0260    23.9200 c3         1 TQO      -0.077100
     50 C16          6.4920     7.9420    23.8870 c3         1 TQO      -0.077100
     51 H191         1.7230     7.2500    17.6040 ha         1 TQO       0.116500
@<TRIPOS>BOND
     1     1     3 1   
     2     1    15 1   
     3     1    16 1   
     4     1    23 1   
     5     2    15 1   
     6     2    20 1   
     7     2    24 1   
     8     2    25 1   
     9     3     4 1   
    10     3    26 1   
    11     3    27 1   
    12     4    21 1   
    13     4    22 1   
    14     5     7 ar  
    15     5    20 ar  
    16     5    48 1   
    17     6     8 ar  
    18     6    20 ar  
    19     6    51 1   
    20     7     9 ar  
    21     7    34 1   
    22     8     9 ar  
    23     8    35 1   
    24     9    36 1   
    25    10    11 1   
    26    10    12 1   
    27    10    13 1   
    28    10    14 1   
    29    11    15 1   
    30    11    37 1   
    31    11    38 1   
    32    12    16 1   
    33    12    39 1   
    34    12    40 1   
    35    13    17 1   
    36    14    18 1   
    37    15    41 1   
    38    16    42 1   
    39    16    43 1   
    40    17    19 1   
    41    17    44 1   
    42    17    45 1   
    43    18    19 1   
    44    18    46 1   
    45    18    47 1   
    46    19    49 1   
    47    19    50 1   
    48    28    49 1   
    49    29    49 1   
    50    30    49 1   
    51    31    50 1   
    52    32    50 1   
    53    33    50 1   
@<TRIPOS>SUBSTRUCTURE
     1 TQO         1 TEMP              0 ****  ****    0 ROOT
