@<TRIPOS>MOLECULE
TQR
   30    31     1     0     0
SMALL
abcg2


@<TRIPOS>ATOM
      1 N1          16.1580    14.0110     2.7240 n          1 TQR      -0.299000
      2 N3          19.1360    12.2730     0.6410 nv         1 TQR      -1.036200
      3 C4          15.1090    14.6510     3.4900 c5         1 TQR       0.244700
      4 C5          11.8380    14.9790     1.9020 c3         1 TQR       0.170600
      5 C6          17.4080    13.7670     3.3290 c          1 TQR       0.720400
      6 C7          18.1480    12.8480     1.3250 cc         1 TQR       0.785500
      7 C8          16.8910    13.0780     0.6840 cc         1 TQR      -0.482600
      8 C1          12.4600    15.0580     3.2880 c5         1 TQR       0.036300
      9 C2          13.3140    16.3070     3.5390 c5         1 TQR       0.140300
     10 C3          14.6810    16.0070     2.9280 c5         1 TQR       0.163300
     11 C9          15.9350    13.6550     1.4350 cd         1 TQR       0.018600
     12 N2          18.3670    13.1820     2.5800 nd         1 TQR      -0.769100
     13 O1          13.5030    16.5440     4.9080 oh         1 TQR      -0.627000
     14 O2          15.6830    16.9360     3.2190 oh         1 TQR      -0.611000
     15 O3          10.8850    16.0090     1.7940 oh         1 TQR      -0.665000
     16 O4          17.5850    14.0820     4.4960 o          1 TQR      -0.526000
     17 S1          13.5880    13.6370     3.5550 ss         1 TQR      -0.429000
     18 H1          20.0210    12.0910     1.0860 hn         1 TQR       0.501500
     19 H2          19.0170    11.9810    -0.3130 hn         1 TQR       0.501500
     20 H3          15.4940    14.7780     4.4980 h2         1 TQR       0.158700
     21 H4          11.3810    13.9880     1.7820 h1         1 TQR       0.029200
     22 H5          12.6180    15.0600     1.1340 h1         1 TQR       0.029200
     23 H6          16.7050    12.7920    -0.3410 ha         1 TQR       0.200000
     24 H7          11.6610    14.9920     4.0300 h1         1 TQR       0.100700
     25 H8          12.8560    17.1720     3.0420 h1         1 TQR       0.063700
     26 H9          14.5360    15.9130     1.8430 h1         1 TQR       0.032700
     27 H10         14.9440    13.8410     1.0440 h4         1 TQR       0.200000
     28 H11         12.6550    16.7740     5.3000 ho         1 TQR       0.450000
     29 H12         15.5440    17.7200     2.6780 ho         1 TQR       0.447000
     30 H13         10.5540    16.0220     0.8910 ho         1 TQR       0.450000
@<TRIPOS>BOND
     1     1     3 1   
     2     1     5 1   
     3     1    11 1   
     4     2     6 1   
     5     2    18 1   
     6     2    19 1   
     7     3    10 1   
     8     3    17 1   
     9     3    20 1   
    10     4     8 1   
    11     4    15 1   
    12     4    21 1   
    13     4    22 1   
    14     5    12 1   
    15     5    16 2   
    16     6     7 1   
    17     6    12 2   
    18     7    11 2   
    19     7    23 1   
    20     8     9 1   
    21     8    17 1   
    22     8    24 1   
    23     9    10 1   
    24     9    13 1   
    25     9    25 1   
    26    10    14 1   
    27    10    26 1   
    28    11    27 1   
    29    13    28 1   
    30    14    29 1   
    31    15    30 1   
@<TRIPOS>SUBSTRUCTURE
     1 TQR         1 TEMP              0 ****  ****    0 ROOT
