@<TRIPOS>MOLECULE
TQR
   30    31     1     0     0
SMALL
No Charge or Current Charge


@<TRIPOS>ATOM
      1 N1          16.1570    14.0090     2.6710 n          1 TQR      -0.299000
      2 N3          19.1920    12.3630     0.6160 nv         1 TQR      -1.036200
      3 C4          15.0930    14.6650     3.4850 c5         1 TQR       0.244700
      4 C5          11.8060    15.0020     1.8490 c3         1 TQR       0.170600
      5 C6          17.4680    13.9670     3.1950 c          1 TQR       0.720400
      6 C7          18.1930    12.9070     1.2780 cc         1 TQR       0.785500
      7 C8          16.9150    12.9210     0.6950 cc         1 TQR      -0.482600
      8 C1          12.4610    15.0780     3.2550 c5         1 TQR       0.036300
      9 C2          13.3450    16.3560     3.5000 c5         1 TQR       0.140300
     10 C3          14.7040    16.0200     2.8000 c5         1 TQR       0.163300
     11 C9          15.8840    13.4850     1.4070 cd         1 TQR       0.018600
     12 N2          18.4840    13.3810     2.4370 nd         1 TQR      -0.769100
     13 O1          13.5320    16.6250     4.9000 oh         1 TQR      -0.627000
     14 O2          15.6710    17.0580     3.0150 oh         1 TQR      -0.611000
     15 O3          10.9110    16.1040     1.6500 oh         1 TQR      -0.665000
     16 O4          17.7530    14.4190     4.2930 o          1 TQR      -0.526000
     17 S1          13.5720    13.5910     3.4900 ss         1 TQR      -0.429000
     18 H1          19.9860    12.1580     1.2060 hn         1 TQR       0.501500
     19 H2          18.9370    11.6390    -0.0420 hn         1 TQR       0.501500
     20 H3          15.4440    14.8220     4.5140 h2         1 TQR       0.158700
     21 H4          11.2580    14.0540     1.7700 h1         1 TQR       0.029200
     22 H5          12.5860    14.9990     1.0770 h1         1 TQR       0.029200
     23 H6          16.7670    12.5000    -0.2930 ha         1 TQR       0.200000
     24 H7          11.6460    15.0300     3.9900 h1         1 TQR       0.100700
     25 H8          12.8850    17.2330     3.0230 h1         1 TQR       0.063700
     26 H9          14.5520    15.8830     1.7220 h1         1 TQR       0.032700
     27 H10         14.8540    13.5660     1.0670 h4         1 TQR       0.200000
     28 H11         12.6640    16.9160     5.2620 ho         1 TQR       0.450000
     29 H12         15.4720    17.4240     3.9060 ho         1 TQR       0.447000
     30 H13         10.4850    15.9740     0.7730 ho         1 TQR       0.450000
@<TRIPOS>BOND
     1     1     3 1   
     2     1     5 1   
     3     1    11 1   
     4     2     6 1   
     5     2    18 1   
     6     2    19 1   
     7     3    10 1   
     8     3    17 1   
     9     3    20 1   
    10     4     8 1   
    11     4    15 1   
    12     4    21 1   
    13     4    22 1   
    14     5    12 1   
    15     5    16 2   
    16     6     7 1   
    17     6    12 2   
    18     7    11 2   
    19     7    23 1   
    20     8     9 1   
    21     8    17 1   
    22     8    24 1   
    23     9    10 1   
    24     9    13 1   
    25     9    25 1   
    26    10    14 1   
    27    10    26 1   
    28    11    27 1   
    29    13    28 1   
    30    14    29 1   
    31    15    30 1   
@<TRIPOS>SUBSTRUCTURE
     1 TQR         1 TEMP              0 ****  ****    0 ROOT
