@<TRIPOS>MOLECULE
TQS
   34    37     1     0     0
SMALL
No Charge or Current Charge


@<TRIPOS>ATOM
      1 N1           0.6990     1.1480    -1.1530 n3         1 TQS      -0.715600
      2 N3          -3.3760     0.1620     0.7490 nc         1 TQS      -0.374300
      3 C4           1.9150     0.8390     0.6350 c5         1 TQS      -0.103700
      4 C5           2.6050    -0.2300     1.4970 c5         1 TQS       0.176800
      5 C6           2.5480    -0.7030    -0.8890 c5         1 TQS       0.171800
      6 C7           1.2160    -0.0510    -0.4130 c5         1 TQS       0.144200
      7 C8           0.0600    -1.1050    -0.0020 c6         1 TQS       0.248600
      8 C10         -1.3390     0.9460     0.1220 cc         1 TQS       0.146300
      9 C1           0.0790     0.9310    -2.4840 c3         1 TQS       0.167100
     10 C11         -2.5170    -0.8410     0.6080 cd         1 TQS       0.312300
     11 C12         -2.9340    -2.2620     0.8630 c3         1 TQS      -0.132400
     12 C2          -0.1370     1.8410    -0.0750 c5         1 TQS       0.146200
     13 C3           0.7580     1.6820     1.2270 c5         1 TQS      -0.048400
     14 C9          -1.2420    -0.3870     0.2360 cd         1 TQS      -0.230300
     15 N2           3.1880    -1.1210     0.4240 n7         1 TQS      -0.896400
     16 O1          -0.1510    -2.0870    -1.0280 oh         1 TQS      -0.656000
     17 O2          -2.6010     1.3580     0.4530 os         1 TQS      -0.058700
     18 H2           2.6700     1.5140     0.2040 hc         1 TQS       0.062700
     19 H3           3.3800     0.1950     2.1500 h1         1 TQS       0.047700
     20 H4           1.8920    -0.7770     2.1290 h1         1 TQS       0.047700
     21 H5           2.3990    -1.5530    -1.5690 h1         1 TQS       0.051700
     22 H6           3.1800     0.0270    -1.4170 h1         1 TQS       0.051700
     23 H7           0.3480    -1.6200     0.9250 h1         1 TQS       0.060700
     24 H8          -0.8010     0.2780    -2.4230 h1         1 TQS       0.041033
     25 H9          -0.2350     1.8870    -2.9210 h1         1 TQS       0.041033
     26 H10          0.7990     0.4650    -3.1700 h1         1 TQS       0.041033
     27 H11         -3.0650    -2.8020    -0.0820 hc         1 TQS       0.058033
     28 H12         -2.1750    -2.7910     1.4510 hc         1 TQS       0.058033
     29 H13         -3.8790    -2.3120     1.4150 hc         1 TQS       0.058033
     30 H14         -0.4190     2.8780    -0.3090 h1         1 TQS       0.096700
     31 H15          0.2380     1.1790     2.0520 hc         1 TQS       0.059200
     32 H16          1.1140     2.6470     1.6030 hc         1 TQS       0.059200
     33 H17          4.2030    -0.9650     0.3560 hn         1 TQS       0.419000
     34 H19          0.6470    -2.6570    -1.0290 ho         1 TQS       0.449000
@<TRIPOS>BOND
     1     1     6 1   
     2     1     9 1   
     3     1    12 1   
     4     2    10 2   
     5     2    17 1   
     6     3     4 1   
     7     3     6 1   
     8     3    13 1   
     9     3    18 1   
    10     4    15 1   
    11     4    19 1   
    12     4    20 1   
    13     5     6 1   
    14     5    15 1   
    15     5    21 1   
    16     5    22 1   
    17     6     7 1   
    18     7    14 1   
    19     7    16 1   
    20     7    23 1   
    21     8    12 1   
    22     8    14 2   
    23     8    17 1   
    24     9    24 1   
    25     9    25 1   
    26     9    26 1   
    27    10    11 1   
    28    10    14 1   
    29    11    27 1   
    30    11    28 1   
    31    11    29 1   
    32    12    13 1   
    33    12    30 1   
    34    13    31 1   
    35    13    32 1   
    36    15    33 1   
    37    16    34 1   
@<TRIPOS>SUBSTRUCTURE
     1 TQS         1 TEMP              0 ****  ****    0 ROOT
