@<TRIPOS>MOLECULE
TQS
   34    37     1     0     0
SMALL
bcc


@<TRIPOS>ATOM
      1 N1           0.6400     1.1500    -1.1240 n3         1 TQS      -0.715600
      2 N3          -3.2850     0.1270     0.6980 nc         1 TQS      -0.374300
      3 C4           1.8510     0.8080     0.7400 c5         1 TQS      -0.103700
      4 C5           2.6280    -0.2570     1.4880 c5         1 TQS       0.176800
      5 C6           2.4820    -0.6700    -0.8950 c5         1 TQS       0.171800
      6 C7           1.2190     0.0270    -0.4130 c5         1 TQS       0.144200
      7 C8           0.1600    -1.0600     0.0250 c6         1 TQS       0.225400
      8 C10         -1.2990     0.9310     0.2180 cc         1 TQS       0.256000
      9 C1          -0.0170     0.9340    -2.3920 c3         1 TQS       0.167100
     10 C11         -2.4560    -0.8740     0.5750 cd         1 TQS       0.377600
     11 C12         -2.9100    -2.2770     0.7530 c3         1 TQS      -0.132400
     12 C2          -0.1460     1.8240    -0.0740 c5         1 TQS       0.146200
     13 C3           0.7780     1.7920     1.1930 c5         1 TQS      -0.048400
     14 C9          -1.1520    -0.4060     0.2680 cd         1 TQS      -0.360900
     15 N2           3.0130    -1.1730     0.3870 n7         1 TQS      -0.841200
     16 O1          -0.0360    -2.0520    -0.9620 oh         1 TQS      -0.593800
     17 O2          -2.5540     1.2750     0.4760 os         1 TQS      -0.103100
     18 H2           2.6090     1.4230     0.2460 hc         1 TQS       0.062700
     19 H3           3.5000     0.1500     2.0040 h1         1 TQS       0.047700
     20 H4           2.0230    -0.7790     2.2380 h1         1 TQS       0.047700
     21 H5           2.3240    -1.4900    -1.5970 h1         1 TQS       0.051700
     22 H6           3.1290     0.0610    -1.3940 h1         1 TQS       0.051700
     23 H7           0.5060    -1.5320     0.9520 h1         1 TQS       0.060700
     24 H8          -0.9110     0.3000    -2.3590 h1         1 TQS       0.041033
     25 H9          -0.3080     1.8970    -2.8150 h1         1 TQS       0.041033
     26 H10          0.6890     0.4730    -3.0840 h1         1 TQS       0.041033
     27 H11         -2.7670    -2.8430    -0.1670 hc         1 TQS       0.058033
     28 H12         -2.3230    -2.7690     1.5290 hc         1 TQS       0.058033
     29 H13         -3.9600    -2.3240     1.0320 hc         1 TQS       0.058033
     30 H14         -0.4420     2.8290    -0.3790 h1         1 TQS       0.096700
     31 H15          0.2230     1.4710     2.0750 hc         1 TQS       0.059200
     32 H16          1.1950     2.7750     1.4090 hc         1 TQS       0.059200
     33 H17          4.0120    -1.3080     0.3430 hn         1 TQS       0.363800
     34 H19          0.6520    -2.7170    -0.8610 ho         1 TQS       0.410000
@<TRIPOS>BOND
     1     1     6 1   
     2     1     9 1   
     3     1    12 1   
     4     2    10 2   
     5     2    17 1   
     6     3     4 1   
     7     3     6 1   
     8     3    13 1   
     9     3    18 1   
    10     4    15 1   
    11     4    19 1   
    12     4    20 1   
    13     5     6 1   
    14     5    15 1   
    15     5    21 1   
    16     5    22 1   
    17     6     7 1   
    18     7    14 1   
    19     7    16 1   
    20     7    23 1   
    21     8    12 1   
    22     8    14 2   
    23     8    17 1   
    24     9    24 1   
    25     9    25 1   
    26     9    26 1   
    27    10    11 1   
    28    10    14 1   
    29    11    27 1   
    30    11    28 1   
    31    11    29 1   
    32    12    13 1   
    33    12    30 1   
    34    13    31 1   
    35    13    32 1   
    36    15    33 1   
    37    16    34 1   
@<TRIPOS>SUBSTRUCTURE
     1 TQS         1 TEMP              0 ****  ****    0 ROOT
