@<TRIPOS>MOLECULE
TQT
   55    58     1     0     0
SMALL
bcc


@<TRIPOS>ATOM
      1 C2          -0.1610     0.8840     4.8410 c6         1 TQT       0.642900
      2 C4           1.0330    -0.6320     3.3560 c6         1 TQT       0.395700
      3 C4B         -0.3020    -1.0740     2.7510 c6         1 TQT      -0.044700
      4 C6           0.0330    -0.3870     0.3040 c6         1 TQT      -0.062700
      5 C7          -1.0460     0.6780     0.4700 c6         1 TQT      -0.062400
      6 C8B         -1.3490     0.0360     2.8960 c6         1 TQT       0.170500
      7 C9           0.0810    -0.9350    -1.1180 c3         1 TQT       0.182800
      8 C'0          1.5980     0.7300    -2.0530 c5         1 TQT       0.168800
      9 C'1          0.0980    -0.3190    -3.4890 c5         1 TQT       0.181500
     10 C'2         -1.3120    -0.6760    -3.9210 c6         1 TQT      -0.066400
     11 C'3         -1.3090    -0.9400    -5.4300 c6         1 TQT      -0.075400
     12 C'4         -0.7150     0.2210    -6.2320 c6         1 TQT      -0.074400
     13 C'5          0.6750     0.6250    -5.7370 c6         1 TQT      -0.063400
     14 C'6          0.6060     0.8970    -4.2470 c5         1 TQT      -0.073700
     15 C'7          1.8870     1.2270    -3.4860 c5         1 TQT      -0.081400
     16 N1          -1.4260     0.4430     4.2940 n7         1 TQT      -0.787200
     17 N2          -0.3530     1.1950     6.2440 n8         1 TQT      -0.865800
     18 N3           0.7790    -0.2120     4.7360 n7         1 TQT      -0.832200
     19 N4           1.9990    -1.7000     3.2950 n8         1 TQT      -0.885800
     20 C5          -0.2020    -1.5260     1.2950 c6         1 TQT      -0.066400
     21 C8          -1.1060     1.1820     1.9050 c6         1 TQT      -0.113400
     22 N'0          0.2850     0.0890    -2.1120 n3         1 TQT      -0.736600
     23 H2           0.2220     1.7690     4.2910 h3         1 TQT      -0.047300
     24 H4           1.4460     0.1960     2.7600 h2         1 TQT       0.031700
     25 H4B         -0.6420    -1.9280     3.3510 hc         1 TQT       0.077700
     26 H6           1.0030     0.0700     0.5360 hc         1 TQT       0.047700
     27 H7'1        -2.0160     0.2480     0.1900 hc         1 TQT       0.049200
     28 H7'2        -0.8680     1.5060    -0.2190 hc         1 TQT       0.049200
     29 H8          -2.3220    -0.4010     2.6400 h1         1 TQT       0.066700
     30 H9'1        -0.8720    -1.4330    -1.3250 h1         1 TQT       0.030700
     31 H9'2         0.8620    -1.7180    -1.1770 h1         1 TQT       0.030700
     32 H'02         1.5970     1.5460    -1.3260 h1         1 TQT       0.035200
     33 H'1          0.7500    -1.1820    -3.7420 h1         1 TQT       0.020700
     34 H'21        -1.9870     0.1520    -3.6800 hc         1 TQT       0.046700
     35 H'22        -1.6850    -1.5570    -3.3910 hc         1 TQT       0.046700
     36 H'31        -2.3270    -1.1410    -5.7730 hc         1 TQT       0.038700
     37 H'32        -0.7340    -1.8490    -5.6350 hc         1 TQT       0.038700
     38 H'41        -1.3800     1.0870    -6.1520 hc         1 TQT       0.039200
     39 H'42        -0.6800    -0.0440    -7.2920 hc         1 TQT       0.039200
     40 H'51         1.0280     1.5040    -6.2830 hc         1 TQT       0.040700
     41 H'52         1.3960    -0.1770    -5.9340 hc         1 TQT       0.040700
     42 H'6         -0.1220     1.7020    -4.0800 hc         1 TQT       0.061700
     43 H'71         2.1360     2.2880    -3.5200 hc         1 TQT       0.044200
     44 H'72         2.7310     0.6820    -3.9140 hc         1 TQT       0.044200
     45 H1          -2.0990     1.1970     4.3790 hn         1 TQT       0.356800
     46 H2'1         0.5240     1.5280     6.6280 hn         1 TQT       0.337800
     47 H2'2        -0.9820     1.9880     6.3200 hn         1 TQT       0.337800
     48 H3           1.6610     0.0890     5.1380 hn         1 TQT       0.344800
     49 H4'1         2.8970    -1.3770     3.6340 hn         1 TQT       0.347800
     50 H4'2         1.7120    -2.4480     3.9160 hn         1 TQT       0.347800
     51 H5'1         0.5850    -2.2780     1.1980 hc         1 TQT       0.048700
     52 H5'2        -1.1420    -2.0250     1.0280 hc         1 TQT       0.048700
     53 H8'1        -0.1740     1.7050     2.1400 hc         1 TQT       0.034700
     54 H8'2        -1.9080     1.9190     2.0170 hc         1 TQT       0.034700
     55 H'01         2.3760     0.0210    -1.7340 h1         1 TQT       0.035200
@<TRIPOS>BOND
     1     1    16 1   
     2     1    17 1   
     3     1    18 1   
     4     1    23 1   
     5     2     3 1   
     6     2    18 1   
     7     2    19 1   
     8     2    24 1   
     9     3     6 1   
    10     3    20 1   
    11     3    25 1   
    12     4     5 1   
    13     4     7 1   
    14     4    20 1   
    15     4    26 1   
    16     5    21 1   
    17     5    27 1   
    18     5    28 1   
    19     6    16 1   
    20     6    21 1   
    21     6    29 1   
    22     7    22 1   
    23     7    30 1   
    24     7    31 1   
    25     8    15 1   
    26     8    22 1   
    27     8    32 1   
    28     8    55 1   
    29     9    10 1   
    30     9    14 1   
    31     9    22 1   
    32     9    33 1   
    33    10    11 1   
    34    10    34 1   
    35    10    35 1   
    36    11    12 1   
    37    11    36 1   
    38    11    37 1   
    39    12    13 1   
    40    12    38 1   
    41    12    39 1   
    42    13    14 1   
    43    13    40 1   
    44    13    41 1   
    45    14    15 1   
    46    14    42 1   
    47    15    43 1   
    48    15    44 1   
    49    16    45 1   
    50    17    46 1   
    51    17    47 1   
    52    18    48 1   
    53    19    49 1   
    54    19    50 1   
    55    20    51 1   
    56    20    52 1   
    57    21    53 1   
    58    21    54 1   
@<TRIPOS>SUBSTRUCTURE
     1 TQT         1 TEMP              0 ****  ****    0 ROOT
