@<TRIPOS>MOLECULE
TQT
   55    58     1     0     0
SMALL
No Charge or Current Charge


@<TRIPOS>ATOM
      1 C2           0.0850     1.0510     4.7940 c6         1 TQT       0.642900
      2 C4           0.9840    -0.6000     3.3850 c6         1 TQT       0.395700
      3 C4B         -0.4230    -0.9640     2.8380 c6         1 TQT      -0.044700
      4 C6          -0.0810    -0.3560     0.3380 c6         1 TQT      -0.062700
      5 C7          -1.0530     0.8450     0.5180 c6         1 TQT      -0.062400
      6 C8B         -1.3410     0.2730     3.0020 c6         1 TQT       0.170500
      7 C9          -0.1050    -0.9160    -1.1180 c3         1 TQT       0.182800
      8 C'0          1.6400     0.6260    -2.0870 c5         1 TQT       0.168800
      9 C'1          0.1770    -0.4180    -3.5750 c5         1 TQT       0.181500
     10 C'2         -1.2460    -0.8290    -4.0280 c6         1 TQT      -0.066400
     11 C'3         -1.2640    -1.0020    -5.5750 c6         1 TQT      -0.075400
     12 C'4         -0.7410     0.2630    -6.3200 c6         1 TQT      -0.074400
     13 C'5          0.6650     0.7020    -5.8190 c6         1 TQT      -0.063400
     14 C'6          0.6310     0.8690    -4.2830 c5         1 TQT      -0.073700
     15 C'7          1.9600     1.1380    -3.5340 c5         1 TQT      -0.081400
     16 N1          -1.2390     0.7760     4.3920 n7         1 TQT      -0.842400
     17 N2          -0.1030     1.0600     6.1370 n8         1 TQT      -0.976200
     18 N3           0.9200    -0.0810     4.7200 n7         1 TQT      -0.887400
     19 N4           1.7920    -1.7540     3.6270 n8         1 TQT      -0.996200
     20 C5          -0.4180    -1.4740     1.3650 c6         1 TQT      -0.066400
     21 C8          -1.0150     1.3890     1.9670 c6         1 TQT      -0.113400
     22 N'0          0.2610     0.0550    -2.1780 n3         1 TQT      -0.736600
     23 H2           0.5180     1.9870     4.4270 h3         1 TQT      -0.047300
     24 H4           1.5280     0.0910     2.7210 h2         1 TQT       0.031700
     25 H4B         -0.8330    -1.7650     3.4680 hc         1 TQT       0.077700
     26 H6           0.9460    -0.0120     0.5250 hc         1 TQT       0.047700
     27 H7'1        -2.0770     0.5380     0.2640 hc         1 TQT       0.049200
     28 H7'2        -0.7900     1.6530    -0.1780 hc         1 TQT       0.049200
     29 H8          -2.3790    -0.0480     2.8250 h1         1 TQT       0.066700
     30 H9'1        -1.1180    -1.2980    -1.3020 h1         1 TQT       0.030700
     31 H9'2         0.5760    -1.7780    -1.1640 h1         1 TQT       0.030700
     32 H'02         1.6870     1.4380    -1.3490 h1         1 TQT       0.035200
     33 H'1          0.8680    -1.2520    -3.7650 h1         1 TQT       0.020700
     34 H'21        -1.9750    -0.0630    -3.7290 hc         1 TQT       0.046700
     35 H'22        -1.5470    -1.7670    -3.5450 hc         1 TQT       0.046700
     36 H'31        -2.2840    -1.2340    -5.9090 hc         1 TQT       0.038700
     37 H'32        -0.6450    -1.8680    -5.8500 hc         1 TQT       0.038700
     38 H'41        -1.4530     1.0880    -6.1790 hc         1 TQT       0.039200
     39 H'42        -0.7050     0.0700    -7.4000 hc         1 TQT       0.039200
     40 H'51         0.9650     1.6430    -6.2980 hc         1 TQT       0.040700
     41 H'52         1.4130    -0.0540    -6.0970 hc         1 TQT       0.040700
     42 H'6         -0.0780     1.6860    -4.0940 hc         1 TQT       0.061700
     43 H'71         2.2380     2.1980    -3.5490 hc         1 TQT       0.044200
     44 H'72         2.7920     0.5740    -3.9700 hc         1 TQT       0.044200
     45 H1          -1.7230     1.6740     4.4260 hn         1 TQT       0.412000
     46 H2'1        -1.0520     0.6980     6.1860 hn         1 TQT       0.393000
     47 H2'2         0.4080     0.2200     6.3960 hn         1 TQT       0.393000
     48 H3           1.8420     0.3060     4.9080 hn         1 TQT       0.400000
     49 H4'1         2.7080    -1.4380     3.9470 hn         1 TQT       0.403000
     50 H4'2         1.3710    -2.1990     4.4430 hn         1 TQT       0.403000
     51 H5'1         0.2930    -2.3050     1.2600 hc         1 TQT       0.048700
     52 H5'2        -1.4070    -1.8930     1.1310 hc         1 TQT       0.048700
     53 H8'1        -0.0250     1.8260     2.1560 hc         1 TQT       0.034700
     54 H8'2        -1.7380     2.2100     2.0660 hc         1 TQT       0.034700
     55 H'01         2.3710    -0.1390    -1.7870 h1         1 TQT       0.035200
@<TRIPOS>BOND
     1     1    16 1   
     2     1    17 1   
     3     1    18 1   
     4     1    23 1   
     5     2     3 1   
     6     2    18 1   
     7     2    19 1   
     8     2    24 1   
     9     3     6 1   
    10     3    20 1   
    11     3    25 1   
    12     4     5 1   
    13     4     7 1   
    14     4    20 1   
    15     4    26 1   
    16     5    21 1   
    17     5    27 1   
    18     5    28 1   
    19     6    16 1   
    20     6    21 1   
    21     6    29 1   
    22     7    22 1   
    23     7    30 1   
    24     7    31 1   
    25     8    15 1   
    26     8    22 1   
    27     8    32 1   
    28     8    55 1   
    29     9    10 1   
    30     9    14 1   
    31     9    22 1   
    32     9    33 1   
    33    10    11 1   
    34    10    34 1   
    35    10    35 1   
    36    11    12 1   
    37    11    36 1   
    38    11    37 1   
    39    12    13 1   
    40    12    38 1   
    41    12    39 1   
    42    13    14 1   
    43    13    40 1   
    44    13    41 1   
    45    14    15 1   
    46    14    42 1   
    47    15    43 1   
    48    15    44 1   
    49    16    45 1   
    50    17    46 1   
    51    17    47 1   
    52    18    48 1   
    53    19    49 1   
    54    19    50 1   
    55    20    51 1   
    56    20    52 1   
    57    21    53 1   
    58    21    54 1   
@<TRIPOS>SUBSTRUCTURE
     1 TQT         1 TEMP              0 ****  ****    0 ROOT
