@<TRIPOS>MOLECULE
TQU
   25    27     1     0     0
SMALL
abcg2


@<TRIPOS>ATOM
      1 CAO         -0.5800    -0.1730     0.0310 ca         1 TQU      -0.013000
      2 CAH         -0.7550     1.2200    -0.0530 ca         1 TQU      -0.183000
      3 CAL         -2.0210     1.7730    -0.0970 ca         1 TQU       0.318000
      4 NAA         -2.2170     3.1250    -0.1320 nv         1 TQU      -1.084000
      5 CAD         -3.1520     0.9100    -0.0540 ca         1 TQU      -0.151000
      6 CAF         -2.9990    -0.4400     0.0190 ca         1 TQU      -0.045000
      7 CAN         -1.7140    -1.0320     0.0590 ca         1 TQU       0.229000
      8 NAJ         -1.6300    -2.3780     0.1000 nb         1 TQU      -0.639000
      9 CAB         -0.4470    -2.9300     0.1140 ca         1 TQU       0.336900
     10 CAC          0.7500    -2.1900     0.1020 ca         1 TQU      -0.157000
     11 CAM          0.6790    -0.8260     0.0620 ca         1 TQU       0.038800
     12 NAP          1.8780    -0.0830     0.0150 na         1 TQU       0.023500
     13 CAG          2.9000    -0.2260    -0.8440 cc         1 TQU       0.422400
     14 NAI          3.8550     0.6180    -0.5430 nd         1 TQU      -0.697000
     15 CAE          3.3600     1.2670     0.5340 cd         1 TQU       0.514900
     16 NAK          2.1680     0.8750     0.9070 nc         1 TQU      -0.518800
     17 H1           0.1050     1.8750    -0.0780 ha         1 TQU       0.132000
     18 H2          -1.4430     3.6960    -0.4300 hn         1 TQU       0.463000
     19 H3          -3.1060     3.4540    -0.4720 hn         1 TQU       0.463000
     20 H4          -4.1460     1.3400    -0.0870 ha         1 TQU       0.118000
     21 H5          -3.8620    -1.0930     0.0430 ha         1 TQU       0.133000
     22 H6          -0.4020    -4.0120     0.1460 h4         1 TQU       0.026100
     23 H7           1.7020    -2.7030     0.1400 ha         1 TQU       0.133000
     24 H8           2.8900    -0.9330    -1.6590 h5         1 TQU       0.068100
     25 H9           3.8930     2.0450     1.0580 h5         1 TQU       0.066100
@<TRIPOS>BOND
     1     1     2 ar  
     2     1     7 ar  
     3     1    11 ar  
     4     2     3 ar  
     5     2    17 1   
     6     3     4 1   
     7     3     5 ar  
     8     4    18 1   
     9     4    19 1   
    10     5     6 ar  
    11     5    20 1   
    12     6     7 ar  
    13     6    21 1   
    14     7     8 ar  
    15     8     9 ar  
    16     9    10 ar  
    17     9    22 1   
    18    10    11 ar  
    19    10    23 1   
    20    11    12 1   
    21    12    13 1   
    22    12    16 1   
    23    13    14 2   
    24    13    24 1   
    25    14    15 1   
    26    15    16 2   
    27    15    25 1   
@<TRIPOS>SUBSTRUCTURE
     1 TQU         1 TEMP              0 ****  ****    0 ROOT
