@<TRIPOS>MOLECULE
TQU
   25    27     1     0     0
SMALL
No Charge or Current Charge


@<TRIPOS>ATOM
      1 CAO         -0.5750    -0.2270     0.0300 ca         1 TQU      -0.013000
      2 CAH         -0.7430     1.1700    -0.1370 ca         1 TQU      -0.183000
      3 CAL         -2.0230     1.7220    -0.2680 ca         1 TQU       0.318000
      4 NAA         -2.1720     3.0720    -0.4300 nv         1 TQU      -1.084000
      5 CAD         -3.1480     0.8910    -0.2320 ca         1 TQU      -0.151000
      6 CAF         -2.9940    -0.4950    -0.0580 ca         1 TQU      -0.045000
      7 CAN         -1.7180    -1.0750     0.0770 ca         1 TQU       0.229000
      8 NAJ         -1.6180    -2.4140     0.2490 nb         1 TQU      -0.639000
      9 CAB         -0.3900    -2.9620     0.3840 ca         1 TQU       0.336900
     10 CAC          0.7870    -2.2060     0.3460 ca         1 TQU      -0.157000
     11 CAM          0.7080    -0.8150     0.1630 ca         1 TQU       0.038800
     12 NAP          1.8880    -0.0700     0.1090 na         1 TQU       0.023500
     13 CAG          2.3970     0.4990    -1.0260 cc         1 TQU       0.422400
     14 NAI          3.5280     1.0930    -0.6770 nd         1 TQU      -0.697000
     15 CAE          3.6490     0.8370     0.6880 cd         1 TQU       0.514900
     16 NAK          2.6560     0.1170     1.2040 nc         1 TQU      -0.518800
     17 H1           0.1140     1.8360    -0.1560 ha         1 TQU       0.132000
     18 H2          -1.3550     3.6570    -0.6000 hn         1 TQU       0.463000
     19 H3          -3.0840     3.4590    -0.6670 hn         1 TQU       0.463000
     20 H4          -4.1440     1.3140    -0.3320 ha         1 TQU       0.118000
     21 H5          -3.8750    -1.1310    -0.0270 ha         1 TQU       0.133000
     22 H6          -0.3520    -4.0420     0.5220 h4         1 TQU       0.026100
     23 H7           1.7480    -2.7000     0.4560 ha         1 TQU       0.133000
     24 H8           1.9290     0.4480    -2.0020 h5         1 TQU       0.068100
     25 H9           4.4920     1.2010     1.2650 h5         1 TQU       0.066100
@<TRIPOS>BOND
     1     1     2 ar  
     2     1     7 ar  
     3     1    11 ar  
     4     2     3 ar  
     5     2    17 1   
     6     3     4 1   
     7     3     5 ar  
     8     4    18 1   
     9     4    19 1   
    10     5     6 ar  
    11     5    20 1   
    12     6     7 ar  
    13     6    21 1   
    14     7     8 ar  
    15     8     9 ar  
    16     9    10 ar  
    17     9    22 1   
    18    10    11 ar  
    19    10    23 1   
    20    11    12 1   
    21    12    13 1   
    22    12    16 1   
    23    13    14 2   
    24    13    24 1   
    25    14    15 1   
    26    15    16 2   
    27    15    25 1   
@<TRIPOS>SUBSTRUCTURE
     1 TQU         1 TEMP              0 ****  ****    0 ROOT
