@<TRIPOS>MOLECULE
TQW
   40    42     1     0     0
SMALL
No Charge or Current Charge


@<TRIPOS>ATOM
      1 C01        -12.8130   -18.1390     2.1710 c3         1 TQW       0.146900
      2 C03        -13.9410   -19.9410     0.9160 ca         1 TQW       0.150100
      3 C04        -14.0470   -21.3110     0.6560 ca         1 TQW      -0.142000
      4 C05        -14.9890   -21.7950    -0.2670 ca         1 TQW      -0.035000
      5 C06        -15.8650   -20.9160    -0.9510 ca         1 TQW       0.196000
      6 C10        -17.9470   -22.9210     0.0650 ca         1 TQW      -0.272500
      7 C11        -17.3640   -23.8820     0.9170 ca         1 TQW      -0.028500
      8 C12        -17.6360   -23.8590     2.2960 ca         1 TQW      -0.085500
      9 C13        -18.4940   -22.8790     2.8410 ca         1 TQW      -0.152600
     10 C14        -19.0780   -21.9240     1.9840 ca         1 TQW      -0.085500
     11 C15        -18.8090   -21.9450     0.6040 ca         1 TQW      -0.028500
     12 C16        -18.7910   -22.8420     4.3180 c          1 TQW       0.577500
     13 C19        -17.6480   -20.4330    -2.7160 c6         1 TQW       0.219800
     14 C20        -16.9560   -19.0640    -2.8490 c6         1 TQW      -0.092400
     15 C21        -16.5860   -18.5150    -1.4610 c6         1 TQW      -0.037100
     16 C22        -15.7230   -19.5240    -0.7050 ca         1 TQW      -0.055300
     17 C23        -14.7790   -19.0440     0.2260 ca         1 TQW      -0.192000
     18 N07        -16.8590   -21.3750    -1.8760 nh         1 TQW      -0.745300
     19 O02        -13.0000   -19.5260     1.8350 os         1 TQW      -0.336100
     20 O09        -16.5820   -23.9390    -2.0140 o          1 TQW      -0.530500
     21 O18        -18.8720   -22.8810    -2.4250 o          1 TQW      -0.530500
     22 S08        -17.5920   -22.9210    -1.7050 sy         1 TQW       1.160600
     23 H1         -12.0200   -18.0340     2.9220 h1         1 TQW       0.042367
     24 H2         -12.5220   -17.5600     1.2850 h1         1 TQW       0.042367
     25 H3         -13.7340   -17.7110     2.5860 h1         1 TQW       0.042367
     26 H4         -13.3910   -22.0070     1.1730 ha         1 TQW       0.136000
     27 H5         -15.0150   -22.8630    -0.4430 ha         1 TQW       0.141000
     28 H6         -16.6990   -24.6470     0.5200 ha         1 TQW       0.142000
     29 H7         -17.1760   -24.6060     2.9400 ha         1 TQW       0.129000
     30 H8         -19.7430   -21.1600     2.3840 ha         1 TQW       0.129000
     31 H9         -19.2650   -21.1960    -0.0410 ha         1 TQW       0.142000
     32 H10        -19.4780   -22.0340     4.6530 h4         1 TQW      -0.004800
     33 H13        -18.6440   -20.2760    -2.2750 h1         1 TQW       0.057700
     34 H14        -17.7930   -20.8470    -3.7250 h1         1 TQW       0.057700
     35 H15        -16.0490   -19.1700    -3.4590 hc         1 TQW       0.056200
     36 H16        -17.6140   -18.3600    -3.3770 hc         1 TQW       0.056200
     37 H17        -16.0550   -17.5600    -1.5740 hc         1 TQW       0.056200
     38 H18        -17.4960   -18.3050    -0.8830 hc         1 TQW       0.056200
     39 H19        -14.7080   -17.9740     0.3950 ha         1 TQW       0.120000
     40 O1         -18.3210   -23.6390     5.1240 o          1 TQW      -0.502100
@<TRIPOS>BOND
     1     1    19 1   
     2     1    23 1   
     3     1    24 1   
     4     1    25 1   
     5     2     3 ar  
     6     2    17 ar  
     7     2    19 1   
     8     3     4 ar  
     9     3    26 1   
    10     4     5 ar  
    11     4    27 1   
    12     5    16 ar  
    13     5    18 1   
    14     6     7 ar  
    15     6    11 ar  
    16     6    22 1   
    17     7     8 ar  
    18     7    28 1   
    19     8     9 ar  
    20     8    29 1   
    21     9    10 ar  
    22     9    12 1   
    23    10    11 ar  
    24    10    30 1   
    25    11    31 1   
    26    12    32 1   
    27    12    40 2   
    28    13    14 1   
    29    13    18 1   
    30    13    33 1   
    31    13    34 1   
    32    14    15 1   
    33    14    35 1   
    34    14    36 1   
    35    15    16 1   
    36    15    37 1   
    37    15    38 1   
    38    16    17 ar  
    39    17    39 1   
    40    18    22 1   
    41    20    22 2   
    42    21    22 2   
@<TRIPOS>SUBSTRUCTURE
     1 TQW         1 TEMP              0 ****  ****    0 ROOT
