@<TRIPOS>MOLECULE
TQW
   40    42     1     0     0
SMALL
bcc


@<TRIPOS>ATOM
      1 C01        -12.1220   -18.7300     1.7900 c3         1 TQW       0.123700
      2 C03        -13.1930   -20.1520     0.2220 ca         1 TQW       0.150100
      3 C04        -13.0780   -21.2180    -0.6740 ca         1 TQW      -0.160000
      4 C05        -14.1840   -21.6700    -1.3650 ca         1 TQW      -0.053000
      5 C06        -15.4290   -21.0850    -1.1500 ca         1 TQW       0.057600
      6 C10        -18.0540   -22.7170     0.1660 ca         1 TQW      -0.272500
      7 C11        -17.3190   -22.6540     1.3480 ca         1 TQW      -0.046500
      8 C12        -17.9710   -22.3480     2.5270 ca         1 TQW      -0.103500
      9 C13        -19.3460   -22.1140     2.5260 ca         1 TQW      -0.152600
     10 C14        -20.0660   -22.1900     1.3390 ca         1 TQW      -0.103500
     11 C15        -19.4240   -22.4950     0.1490 ca         1 TQW      -0.046500
     12 C16        -20.0660   -21.7940     3.7750 c          1 TQW       0.577500
     13 C19        -17.5720   -20.5580    -2.3110 c6         1 TQW       0.219800
     14 C20        -17.3630   -19.1830    -1.6830 c6         1 TQW      -0.092400
     15 C21        -16.8760   -19.3080    -0.2410 c6         1 TQW      -0.037100
     16 C22        -15.5480   -20.0000    -0.2860 ca         1 TQW      -0.055300
     17 C23        -14.4280   -19.5300     0.3920 ca         1 TQW      -0.210000
     18 N07        -16.5900   -21.5530    -1.8240 nh         1 TQW      -0.606900
     19 O02        -12.0630   -19.7830     0.8500 os         1 TQW      -0.312900
     20 O09        -16.0690   -23.8900    -1.0540 o          1 TQW      -0.601300
     21 O18        -18.1690   -23.4250    -2.3540 o          1 TQW      -0.601300
     22 S08        -17.1940   -23.0260    -1.3560 sy         1 TQW       1.302200
     23 H1         -11.1180   -18.6200     2.1940 h1         1 TQW       0.042367
     24 H2         -12.4200   -17.7850     1.3280 h1         1 TQW       0.042367
     25 H3         -12.8090   -18.9530     2.6110 h1         1 TQW       0.042367
     26 H4         -12.1110   -21.6800    -0.8320 ha         1 TQW       0.154000
     27 H5         -14.0760   -22.4770    -2.0750 ha         1 TQW       0.159000
     28 H6         -16.2550   -22.8450     1.3550 ha         1 TQW       0.160000
     29 H7         -17.4110   -22.2990     3.4520 ha         1 TQW       0.147000
     30 H8         -21.1350   -22.0170     1.3390 ha         1 TQW       0.147000
     31 H9         -19.9910   -22.5640    -0.7690 ha         1 TQW       0.160000
     32 H10        -21.1510   -21.6310     3.6500 h4         1 TQW      -0.004800
     33 H13        -18.5800   -20.8980    -2.0720 h1         1 TQW       0.057700
     34 H14        -17.5060   -20.5010    -3.3970 h1         1 TQW       0.057700
     35 H15        -16.6300   -18.6100    -2.2540 hc         1 TQW       0.056200
     36 H16        -18.3050   -18.6350    -1.7370 hc         1 TQW       0.056200
     37 H17        -16.7820   -18.3260     0.2250 hc         1 TQW       0.056200
     38 H18        -17.6010   -19.8720     0.3550 hc         1 TQW       0.056200
     39 H19        -14.5450   -18.6750     1.0460 ha         1 TQW       0.138000
     40 O1         -19.5410   -21.7130     4.8580 o          1 TQW      -0.502100
@<TRIPOS>BOND
     1     1    19 1   
     2     1    23 1   
     3     1    24 1   
     4     1    25 1   
     5     2     3 ar  
     6     2    17 ar  
     7     2    19 1   
     8     3     4 ar  
     9     3    26 1   
    10     4     5 ar  
    11     4    27 1   
    12     5    16 ar  
    13     5    18 1   
    14     6     7 ar  
    15     6    11 ar  
    16     6    22 1   
    17     7     8 ar  
    18     7    28 1   
    19     8     9 ar  
    20     8    29 1   
    21     9    10 ar  
    22     9    12 1   
    23    10    11 ar  
    24    10    30 1   
    25    11    31 1   
    26    12    32 1   
    27    12    40 2   
    28    13    14 1   
    29    13    18 1   
    30    13    33 1   
    31    13    34 1   
    32    14    15 1   
    33    14    35 1   
    34    14    36 1   
    35    15    16 1   
    36    15    37 1   
    37    15    38 1   
    38    16    17 ar  
    39    17    39 1   
    40    18    22 1   
    41    20    22 2   
    42    21    22 2   
@<TRIPOS>SUBSTRUCTURE
     1 TQW         1 TEMP              0 ****  ****    0 ROOT
