@<TRIPOS>MOLECULE
TQX
   59    62     1     0     0
SMALL
No Charge or Current Charge


@<TRIPOS>ATOM
      1 C01          3.1190     3.8710     0.6130 ca         1 TQX      -0.085000
      2 C02          2.7000     2.5580     0.3260 ca         1 TQX       0.268000
      3 C03          1.3130     2.2830     0.2170 ca         1 TQX      -0.066000
      4 C04          0.3830     3.3360     0.3880 ca         1 TQX      -0.087000
      5 C05          0.8190     4.6380     0.6730 ca         1 TQX      -0.135000
      6 C06          2.1890     4.9080     0.7890 ca         1 TQX      -0.128000
      7 N07          3.6310     1.5990     0.1560 nb         1 TQX      -0.709000
      8 C08          3.2420     0.3340    -0.1240 ca         1 TQX       0.420300
      9 C09          1.8780    -0.0490    -0.2500 ca         1 TQX      -0.034300
     10 C10          0.8810     0.9570    -0.0680 cp         1 TQX      -0.024000
     11 C11          4.4170    -0.6220    -0.3100 c3         1 TQX      -0.144400
     12 C12         -0.5770     0.6370    -0.1760 cp         1 TQX      -0.030000
     13 C13          1.4860    -1.5030    -0.5880 c3         1 TQX       0.051600
     14 O14          1.9380    -2.3740     0.4980 os         1 TQX      -0.442000
     15 C15         -1.1340     0.4320    -1.4570 ca         1 TQX      -0.085000
     16 C16         -2.4880     0.1220    -1.6110 ca         1 TQX       0.132000
     17 C17         -3.3250     0.0160    -0.4860 ca         1 TQX       0.088100
     18 C18         -2.8020     0.2510     0.8130 ca         1 TQX      -0.154300
     19 C19         -1.4200     0.5460     0.9720 ca         1 TQX      -0.050300
     20 O20         -4.6610    -0.2940    -0.6800 os         1 TQX      -0.332100
     21 C21         -5.4640    -0.7110     0.4400 c6         1 TQX       0.162600
     22 C22         -5.2270     0.2220     1.6370 c6         1 TQX      -0.114400
     23 C23         -3.7390     0.1800     2.0330 c6         1 TQX      -0.020100
     24 C24         -0.8460     0.7720     2.3760 c3         1 TQX      -0.046800
     25 C25          1.0490    -3.4060     1.0040 c3         1 TQX       0.197000
     26 C26          1.8890    -4.1750     2.0480 c3         1 TQX      -0.102100
     27 C27         -0.1670    -2.7340     1.6910 c3         1 TQX      -0.102100
     28 C28          0.6140    -4.3530    -0.1450 c3         1 TQX      -0.102100
     29 F29         -2.9830    -0.0810    -2.8540 f          1 TQX      -0.172000
     30 C30          2.0050    -1.9100    -2.0140 c          1 TQX       0.719000
     31 O31          1.6280    -1.2360    -2.9640 o          1 TQX      -0.709000
     32 O32          2.7790    -2.8510    -2.1410 o          1 TQX      -0.709000
     33 H01          4.1800     4.0860     0.6990 ha         1 TQX       0.117000
     34 H04         -0.6860     3.1590     0.2990 ha         1 TQX       0.113000
     35 H05          0.0940     5.4380     0.8040 ha         1 TQX       0.097000
     36 H06          2.5310     5.9160     1.0100 ha         1 TQX       0.097000
     37 H11          4.2930    -1.5420     0.2700 hc         1 TQX       0.057700
     38 H11A         4.5390    -0.8920    -1.3640 hc         1 TQX       0.057700
     39 H11B         5.3620    -0.1740     0.0170 hc         1 TQX       0.057700
     40 H13          0.3980    -1.5640    -0.6730 h1         1 TQX       0.038700
     41 H15         -0.5040     0.5090    -2.3390 ha         1 TQX       0.191000
     42 H21         -6.5230    -0.7020     0.1460 h1         1 TQX       0.048700
     43 H21A        -5.1900    -1.7410     0.7100 h1         1 TQX       0.048700
     44 H22         -5.5160     1.2470     1.3650 hc         1 TQX       0.048200
     45 H22A        -5.8570    -0.0750     2.4860 hc         1 TQX       0.048200
     46 H23         -3.5380    -0.7490     2.5840 hc         1 TQX       0.047200
     47 H23A        -3.5380     1.0070     2.7280 hc         1 TQX       0.047200
     48 H24         -1.0830     1.7790     2.7360 hc         1 TQX       0.041700
     49 H24A        -1.2470     0.0530     3.1000 hc         1 TQX       0.041700
     50 H24B         0.2430     0.6580     2.4110 hc         1 TQX       0.041700
     51 H26          2.2230    -3.5070     2.8500 hc         1 TQX       0.033811
     52 H26A         1.3030    -4.9830     2.5010 hc         1 TQX       0.033811
     53 H26B         2.7770    -4.6200     1.5820 hc         1 TQX       0.033811
     54 H27         -0.8450    -2.2730     0.9640 hc         1 TQX       0.033811
     55 H27A        -0.7490    -3.4760     2.2500 hc         1 TQX       0.033811
     56 H27B         0.1650    -1.9650     2.3980 hc         1 TQX       0.033811
     57 H28          1.4870    -4.7800    -0.6510 hc         1 TQX       0.033811
     58 H28A         0.0210    -5.1840     0.2540 hc         1 TQX       0.033811
     59 H28B        -0.0040    -3.8360    -0.8870 hc         1 TQX       0.033811
@<TRIPOS>BOND
     1     1     2 ar  
     2     1     6 ar  
     3     1    33 1   
     4     2     3 ar  
     5     2     7 ar  
     6     3     4 ar  
     7     3    10 ar  
     8     4     5 ar  
     9     4    34 1   
    10     5     6 ar  
    11     5    35 1   
    12     6    36 1   
    13     7     8 ar  
    14     8     9 ar  
    15     8    11 1   
    16     9    10 ar  
    17     9    13 1   
    18    10    12 1   
    19    11    37 1   
    20    11    38 1   
    21    11    39 1   
    22    12    15 ar  
    23    12    19 ar  
    24    13    14 1   
    25    13    30 1   
    26    13    40 1   
    27    14    25 1   
    28    15    16 ar  
    29    15    41 1   
    30    16    17 ar  
    31    16    29 1   
    32    17    18 ar  
    33    17    20 1   
    34    18    19 ar  
    35    18    23 1   
    36    19    24 1   
    37    20    21 1   
    38    21    22 1   
    39    21    42 1   
    40    21    43 1   
    41    22    23 1   
    42    22    44 1   
    43    22    45 1   
    44    23    46 1   
    45    23    47 1   
    46    24    48 1   
    47    24    49 1   
    48    24    50 1   
    49    25    26 1   
    50    25    27 1   
    51    25    28 1   
    52    26    51 1   
    53    26    52 1   
    54    26    53 1   
    55    27    54 1   
    56    27    55 1   
    57    27    56 1   
    58    28    57 1   
    59    28    58 1   
    60    28    59 1   
    61    30    31 1   
    62    30    32 1   
@<TRIPOS>SUBSTRUCTURE
     1 TQX         1 TEMP              0 ****  ****    0 ROOT
