@<TRIPOS>MOLECULE
TQX
   59    62     1     0     0
SMALL
abcg2


@<TRIPOS>ATOM
      1 C01          3.0230     3.7370     0.7780 ca         1 TQX      -0.085000
      2 C02          2.5950     2.4330     0.4420 ca         1 TQX       0.268000
      3 C03          1.2170     2.1660     0.2960 ca         1 TQX      -0.066000
      4 C04          0.2990     3.2270     0.4730 ca         1 TQX      -0.087000
      5 C05          0.7360     4.4840     0.7960 ca         1 TQX      -0.135000
      6 C06          2.1110     4.7430     0.9560 ca         1 TQX      -0.128000
      7 N07          3.5350     1.4780     0.2580 nb         1 TQX      -0.709000
      8 C08          3.1740     0.2670    -0.0720 ca         1 TQX       0.420300
      9 C09          1.8040    -0.1170    -0.2430 ca         1 TQX      -0.034300
     10 C10          0.8320     0.8350    -0.0390 cp         1 TQX      -0.024000
     11 C11          4.3030    -0.7090    -0.2440 c3         1 TQX      -0.144400
     12 C12         -0.6160     0.5350    -0.1870 cp         1 TQX      -0.030000
     13 C13          1.4690    -1.5310    -0.6540 c3         1 TQX       0.051600
     14 O14          2.0790    -2.4550     0.2070 os         1 TQX      -0.442000
     15 C15         -1.1210     0.3130    -1.4690 ca         1 TQX      -0.085000
     16 C16         -2.4550     0.0500    -1.6320 ca         1 TQX       0.132000
     17 C17         -3.3360     0.0090    -0.5540 ca         1 TQX       0.088100
     18 C18         -2.8440     0.2580     0.7260 ca         1 TQX      -0.154300
     19 C19         -1.4740     0.5050     0.9140 ca         1 TQX      -0.050300
     20 O20         -4.6230    -0.2710    -0.8340 os         1 TQX      -0.332100
     21 C21         -5.4520    -0.6190     0.2700 c6         1 TQX       0.162600
     22 C22         -5.2470     0.3370     1.4230 c6         1 TQX      -0.114400
     23 C23         -3.7990     0.2700     1.8900 c6         1 TQX      -0.020100
     24 C24         -0.9660     0.7270     2.3100 c3         1 TQX      -0.046800
     25 C25          1.2570    -3.3130     0.9890 c3         1 TQX       0.197000
     26 C26          2.2440    -4.1730     1.7720 c3         1 TQX      -0.102100
     27 C27          0.3900    -2.5180     1.9650 c3         1 TQX      -0.102100
     28 C28          0.3860    -4.2080     0.1080 c3         1 TQX      -0.102100
     29 F29         -2.9470    -0.1840    -2.8610 f          1 TQX      -0.172000
     30 C30          1.8510    -1.7790    -2.1420 c          1 TQX       0.719000
     31 O31          1.6550    -0.8110    -2.9060 o          1 TQX      -0.709000
     32 O32          2.2690    -2.9050    -2.4470 o          1 TQX      -0.709000
     33 H01          4.0850     3.9180     0.8870 ha         1 TQX       0.117000
     34 H04         -0.7600     3.0470     0.3450 ha         1 TQX       0.113000
     35 H05          0.0210     5.2860     0.9270 ha         1 TQX       0.097000
     36 H06          2.4450     5.7400     1.2140 ha         1 TQX       0.097000
     37 H11          4.4080    -1.3330     0.6440 hc         1 TQX       0.057700
     38 H11A         4.1650    -1.3870    -1.0830 hc         1 TQX       0.057700
     39 H11B         5.2330    -0.1620    -0.3850 hc         1 TQX       0.057700
     40 H13          0.3780    -1.6340    -0.6260 h1         1 TQX       0.038700
     41 H15         -0.4540     0.3130    -2.3220 ha         1 TQX       0.191000
     42 H21         -6.4730    -0.5920    -0.1050 h1         1 TQX       0.048700
     43 H21A        -5.2290    -1.6460     0.5830 h1         1 TQX       0.048700
     44 H22         -5.5000     1.3520     1.1050 hc         1 TQX       0.048200
     45 H22A        -5.9240     0.0770     2.2370 hc         1 TQX       0.048200
     46 H23         -3.6480    -0.6250     2.5030 hc         1 TQX       0.047200
     47 H23A        -3.5830     1.1180     2.5420 hc         1 TQX       0.047200
     48 H24         -1.2120     1.7290     2.6710 hc         1 TQX       0.041700
     49 H24A        -1.4090     0.0190     3.0110 hc         1 TQX       0.041700
     50 H24B         0.1140     0.6110     2.3720 hc         1 TQX       0.041700
     51 H26          2.8880    -3.5540     2.3990 hc         1 TQX       0.033811
     52 H26A         1.7130    -4.8710     2.4210 hc         1 TQX       0.033811
     53 H26B         2.8770    -4.7530     1.0990 hc         1 TQX       0.033811
     54 H27         -0.3460    -1.8950     1.4560 hc         1 TQX       0.033811
     55 H27A        -0.1610    -3.1950     2.6200 hc         1 TQX       0.033811
     56 H27B         1.0020    -1.8660     2.5910 hc         1 TQX       0.033811
     57 H28          1.0000    -4.7770    -0.5910 hc         1 TQX       0.033811
     58 H28A        -0.1760    -4.9100     0.7250 hc         1 TQX       0.033811
     59 H28B        -0.3410    -3.6380    -0.4740 hc         1 TQX       0.033811
@<TRIPOS>BOND
     1     1     2 ar  
     2     1     6 ar  
     3     1    33 1   
     4     2     3 ar  
     5     2     7 ar  
     6     3     4 ar  
     7     3    10 ar  
     8     4     5 ar  
     9     4    34 1   
    10     5     6 ar  
    11     5    35 1   
    12     6    36 1   
    13     7     8 ar  
    14     8     9 ar  
    15     8    11 1   
    16     9    10 ar  
    17     9    13 1   
    18    10    12 1   
    19    11    37 1   
    20    11    38 1   
    21    11    39 1   
    22    12    15 ar  
    23    12    19 ar  
    24    13    14 1   
    25    13    30 1   
    26    13    40 1   
    27    14    25 1   
    28    15    16 ar  
    29    15    41 1   
    30    16    17 ar  
    31    16    29 1   
    32    17    18 ar  
    33    17    20 1   
    34    18    19 ar  
    35    18    23 1   
    36    19    24 1   
    37    20    21 1   
    38    21    22 1   
    39    21    42 1   
    40    21    43 1   
    41    22    23 1   
    42    22    44 1   
    43    22    45 1   
    44    23    46 1   
    45    23    47 1   
    46    24    48 1   
    47    24    49 1   
    48    24    50 1   
    49    25    26 1   
    50    25    27 1   
    51    25    28 1   
    52    26    51 1   
    53    26    52 1   
    54    26    53 1   
    55    27    54 1   
    56    27    55 1   
    57    27    56 1   
    58    28    57 1   
    59    28    58 1   
    60    28    59 1   
    61    30    31 1   
    62    30    32 1   
@<TRIPOS>SUBSTRUCTURE
     1 TQX         1 TEMP              0 ****  ****    0 ROOT
