@<TRIPOS>MOLECULE
TQY
   47    47     1     0     0
SMALL
No Charge or Current Charge


@<TRIPOS>ATOM
      1 C13         21.2580   -56.6360    40.9280 c          1 TQY       0.594100
      2 C7          22.7410   -56.6260    40.5480 c3         1 TQY      -0.135400
      3 C8          23.4160   -55.2650    40.8550 c3         1 TQY      -0.063400
      4 C9          23.3800   -54.8590    42.3500 c3         1 TQY      -0.079400
      5 C10         24.0520   -53.4970    42.6580 c3         1 TQY      -0.070400
      6 C11         23.4590   -52.2670    41.9220 c3         1 TQY      -0.072400
      7 C12         21.9490   -52.0340    42.1670 c3         1 TQY      -0.082400
      8 C1          18.6090   -52.1360    39.1150 c6         1 TQY       0.403300
      9 C2          18.8420   -52.2930    37.5730 c6         1 TQY       0.099300
     10 C3          18.2550   -53.6440    37.0710 c6         1 TQY       0.127300
     11 C4          18.8360   -54.8270    37.8970 c6         1 TQY       0.114300
     12 C5          18.5380   -54.5710    39.4110 c6         1 TQY       0.147300
     13 O2          18.2650   -51.2000    36.8230 oh         1 TQY      -0.730000
     14 O3          18.5290   -53.8290    35.6700 oh         1 TQY      -0.730000
     15 O4          18.2720   -56.0720    37.4250 oh         1 TQY      -0.724000
     16 O5          19.1010   -53.2930    39.8210 os         1 TQY      -0.435000
     17 C6          19.1250   -55.6590    40.3590 c3         1 TQY       0.165600
     18 O6          20.5220   -55.8690    40.0650 os         1 TQY      -0.447100
     19 C31         21.4170   -50.7620    41.4800 c3         1 TQY      -0.093100
     20 O7          20.8320   -57.0810    41.9850 o          1 TQY      -0.490000
     21 H9          23.2670   -57.4280    41.0790 hc         1 TQY       0.070200
     22 H10         22.8180   -56.7620    39.4630 hc         1 TQY       0.070200
     23 H11         24.4600   -55.3030    40.5200 hc         1 TQY       0.047700
     24 H12         22.9210   -54.4930    40.2530 hc         1 TQY       0.047700
     25 H13         22.3440   -54.8320    42.7060 hc         1 TQY       0.046700
     26 H6          23.8850   -55.6350    42.9380 hc         1 TQY       0.046700
     27 H7          23.9960   -53.3190    43.7390 hc         1 TQY       0.037700
     28 H8          21.3750   -52.8920    41.7950 hc         1 TQY       0.043700
     29 H1          19.1580   -51.2450    39.4620 h2         1 TQY       0.088700
     30 H2          19.9310   -52.3160    37.4110 h1         1 TQY       0.065700
     31 H3          17.1660   -53.6290    37.2320 h1         1 TQY       0.059700
     32 H4          19.9290   -54.8320    37.7580 h1         1 TQY       0.067700
     33 H5          17.4500   -54.5470    39.5700 h1         1 TQY       0.074700
     34 HO2         18.2260   -51.5320    35.8910 ho         1 TQY       0.532000
     35 HO3         18.3910   -54.7960    35.5190 ho         1 TQY       0.523000
     36 HO4         18.8760   -56.7960    37.7150 ho         1 TQY       0.516000
     37 H61         18.9870   -55.3170    41.3940 h1         1 TQY       0.065700
     38 H62         18.5580   -56.5910    40.2350 h1         1 TQY       0.065700
     39 H30         20.3460   -50.6390    41.6800 hc         1 TQY       0.031033
     40 H31         21.9400   -49.8720    41.8520 hc         1 TQY       0.031033
     41 H32         21.5590   -50.8200    40.3940 hc         1 TQY       0.031033
     42 O1          17.2200   -51.9880    39.4080 oh         1 TQY      -0.747000
     43 HO1         16.9140   -51.3440    38.7270 ho         1 TQY       0.538000
     44 H14         25.1200   -53.5670    42.4150 hc         1 TQY       0.037700
     45 H15         24.0090   -51.3760    42.2480 hc         1 TQY       0.035200
     46 H16         23.6420   -52.3590    40.8440 hc         1 TQY       0.035200
     47 H17         21.7610   -51.9650    43.2460 hc         1 TQY       0.043700
@<TRIPOS>BOND
     1     1     2 1   
     2     1    18 1   
     3     1    20 2   
     4     2     3 1   
     5     2    21 1   
     6     2    22 1   
     7     3     4 1   
     8     3    23 1   
     9     3    24 1   
    10     4     5 1   
    11     4    25 1   
    12     4    26 1   
    13     5     6 1   
    14     5    27 1   
    15     5    44 1   
    16     6     7 1   
    17     6    45 1   
    18     6    46 1   
    19     7    19 1   
    20     7    28 1   
    21     7    47 1   
    22     8     9 1   
    23     8    16 1   
    24     8    29 1   
    25     8    42 1   
    26     9    10 1   
    27     9    13 1   
    28     9    30 1   
    29    10    11 1   
    30    10    14 1   
    31    10    31 1   
    32    11    12 1   
    33    11    15 1   
    34    11    32 1   
    35    12    16 1   
    36    12    17 1   
    37    12    33 1   
    38    13    34 1   
    39    14    35 1   
    40    15    36 1   
    41    17    18 1   
    42    17    37 1   
    43    17    38 1   
    44    19    39 1   
    45    19    40 1   
    46    19    41 1   
    47    42    43 1   
@<TRIPOS>SUBSTRUCTURE
     1 TQY         1 TEMP              0 ****  ****    0 ROOT
