@<TRIPOS>MOLECULE
TQY
   47    47     1     0     0
SMALL
bcc


@<TRIPOS>ATOM
      1 C13         21.2160   -56.9630    40.9480 c          1 TQY       0.643100
      2 C7          22.7060   -56.7570    40.9040 c3         1 TQY      -0.135400
      3 C8          23.1740   -55.3070    41.0020 c3         1 TQY      -0.063400
      4 C9          22.7140   -54.6080    42.2780 c3         1 TQY      -0.079400
      5 C10         23.4630   -53.3110    42.5680 c3         1 TQY      -0.070400
      6 C11         23.4050   -52.2580    41.4650 c3         1 TQY      -0.072400
      7 C12         21.9950   -51.8030    41.1040 c3         1 TQY      -0.082400
      8 C1          18.4310   -52.5570    39.9470 c6         1 TQY       0.356900
      9 C2          18.8770   -52.2300    38.5180 c6         1 TQY       0.076100
     10 C3          18.5340   -53.3690    37.5710 c6         1 TQY       0.104100
     11 C4          19.1300   -54.6620    38.1090 c6         1 TQY       0.091100
     12 C5          18.5990   -54.8940    39.5260 c6         1 TQY       0.124100
     13 O2          18.2460   -51.0230    38.1610 oh         1 TQY      -0.607800
     14 O3          19.0560   -53.0260    36.3060 oh         1 TQY      -0.607800
     15 O4          18.7460   -55.7200    37.2570 oh         1 TQY      -0.601800
     16 O5          18.9220   -53.7910    40.3560 os         1 TQY      -0.388600
     17 C6          19.1370   -56.1340    40.1970 c3         1 TQY       0.142400
     18 O6          20.5610   -56.0660    40.2240 os         1 TQY      -0.423900
     19 C31         21.9930   -50.6910    40.0640 c3         1 TQY      -0.093100
     20 O7          20.6650   -57.8550    41.5460 o          1 TQY      -0.539000
     21 H9          23.1410   -57.3520    41.7090 hc         1 TQY       0.070200
     22 H10         23.0610   -57.1980    39.9660 hc         1 TQY       0.070200
     23 H11         24.2680   -55.3170    40.9680 hc         1 TQY       0.047700
     24 H12         22.8450   -54.7550    40.1190 hc         1 TQY       0.047700
     25 H13         21.6380   -54.4140    42.2220 hc         1 TQY       0.046700
     26 H6          22.8560   -55.2850    43.1270 hc         1 TQY       0.046700
     27 H7          23.0700   -52.8790    43.4930 hc         1 TQY       0.037700
     28 H8          21.4150   -52.6510    40.7300 hc         1 TQY       0.043700
     29 H1          18.8750   -51.8290    40.6380 h2         1 TQY       0.088700
     30 H2          19.9700   -52.1110    38.5280 h1         1 TQY       0.065700
     31 H3          17.4420   -53.4830    37.5190 h1         1 TQY       0.059700
     32 H4          20.2220   -54.5550    38.1370 h1         1 TQY       0.067700
     33 H5          17.5140   -55.0410    39.4690 h1         1 TQY       0.074700
     34 HO2         18.3910   -50.8690    37.2220 ho         1 TQY       0.433000
     35 HO3         18.7300   -53.6640    35.6640 ho         1 TQY       0.424000
     36 HO4         19.4970   -56.3040    37.1260 ho         1 TQY       0.417000
     37 H61         18.7380   -56.2040    41.2110 h1         1 TQY       0.065700
     38 H62         18.8060   -57.0220    39.6530 h1         1 TQY       0.065700
     39 H30         20.9820   -50.3560    39.8300 hc         1 TQY       0.031033
     40 H31         22.5520   -49.8210    40.4140 hc         1 TQY       0.031033
     41 H32         22.4540   -51.0220    39.1310 hc         1 TQY       0.031033
     42 O1          17.0390   -52.5640    40.0600 oh         1 TQY      -0.624800
     43 HO1         16.6860   -51.8680    39.4960 ho         1 TQY       0.439000
     44 H14         24.5120   -53.5480    42.7730 hc         1 TQY       0.037700
     45 H15         23.9880   -51.3880    41.7860 hc         1 TQY       0.035200
     46 H16         23.9060   -52.6290    40.5640 hc         1 TQY       0.035200
     47 H17         21.4820   -51.4610    42.0080 hc         1 TQY       0.043700
@<TRIPOS>BOND
     1     1     2 1   
     2     1    18 1   
     3     1    20 2   
     4     2     3 1   
     5     2    21 1   
     6     2    22 1   
     7     3     4 1   
     8     3    23 1   
     9     3    24 1   
    10     4     5 1   
    11     4    25 1   
    12     4    26 1   
    13     5     6 1   
    14     5    27 1   
    15     5    44 1   
    16     6     7 1   
    17     6    45 1   
    18     6    46 1   
    19     7    19 1   
    20     7    28 1   
    21     7    47 1   
    22     8     9 1   
    23     8    16 1   
    24     8    29 1   
    25     8    42 1   
    26     9    10 1   
    27     9    13 1   
    28     9    30 1   
    29    10    11 1   
    30    10    14 1   
    31    10    31 1   
    32    11    12 1   
    33    11    15 1   
    34    11    32 1   
    35    12    16 1   
    36    12    17 1   
    37    12    33 1   
    38    13    34 1   
    39    14    35 1   
    40    15    36 1   
    41    17    18 1   
    42    17    37 1   
    43    17    38 1   
    44    19    39 1   
    45    19    40 1   
    46    19    41 1   
    47    42    43 1   
@<TRIPOS>SUBSTRUCTURE
     1 TQY         1 TEMP              0 ****  ****    0 ROOT
