@<TRIPOS>MOLECULE
TQZ
   17    16     1     0     0
SMALL
No Charge or Current Charge


@<TRIPOS>ATOM
      1 S4           3.9450    -1.1300    -0.1640 sh         1 TQZ      -0.267800
      2 S3           2.4170    -0.5030     1.1270 ss         1 TQZ      -0.044000
      3 S2           1.6940     1.3030     0.3500 ss         1 TQZ      -0.136000
      4 S1           0.7720     0.8980    -1.4890 ss         1 TQZ       0.080000
      5 SG          -0.2450    -0.9280    -1.3170 ss         1 TQZ      -0.189100
      6 CB          -1.5060    -0.6380     0.0120 c3         1 TQZ       0.062700
      7 CA          -2.8000     0.0380    -0.5160 c3         1 TQZ       0.006500
      8 N           -2.5500     1.4590    -0.9870 n8         1 TQZ      -0.890800
      9 C           -3.9580    -0.1590     0.5460 c          1 TQZ       0.909600
     10 O           -3.8140     0.3160     1.6690 o          1 TQZ      -0.820800
     11 OXT         -4.9900    -0.7180     0.1930 o          1 TQZ      -0.820800
     12 H4           4.7870    -0.0750    -0.0500 hs         1 TQZ       0.206800
     13 HB2         -1.7710    -1.6190     0.4270 h1         1 TQZ       0.083200
     14 HB3         -1.0610    -0.0440     0.8200 h1         1 TQZ       0.083200
     15 HA          -3.1130    -0.5330    -1.4010 h1         1 TQZ       0.052700
     16 H           -3.4160     1.8440    -1.3820 hn         1 TQZ       0.342300
     17 H2          -2.3630     2.0540    -0.1730 hn         1 TQZ       0.342300
@<TRIPOS>BOND
     1     1     2 1   
     2     1    12 1   
     3     2     3 1   
     4     3     4 1   
     5     4     5 1   
     6     5     6 1   
     7     6     7 1   
     8     6    13 1   
     9     6    14 1   
    10     7     8 1   
    11     7     9 1   
    12     7    15 1   
    13     8    16 1   
    14     8    17 1   
    15     9    10 1   
    16     9    11 1   
@<TRIPOS>SUBSTRUCTURE
     1 TQZ         1 TEMP              0 ****  ****    0 ROOT
