@<TRIPOS>MOLECULE
TQZ
   17    16     1     0     0
SMALL
bcc


@<TRIPOS>ATOM
      1 S4           4.6420     0.3040    -0.9790 sh         1 TQZ      -0.267800
      2 S3           3.4560    -1.0820    -0.0250 ss         1 TQZ      -0.044000
      3 S2           2.0160    -0.0220     1.0070 ss         1 TQZ      -0.136000
      4 S1           0.5680     0.5080    -0.3740 ss         1 TQZ       0.080000
      5 SG          -0.5180    -1.2120    -0.6680 ss         1 TQZ      -0.189100
      6 CB          -2.0460    -0.8460     0.2400 c3         1 TQZ       0.062700
      7 CA          -2.9750     0.0820    -0.5400 c3         1 TQZ       0.006500
      8 N           -2.2730     1.2860    -0.9350 n8         1 TQZ      -0.890800
      9 C           -4.2630     0.2860     0.3080 c          1 TQZ       0.909600
     10 O           -4.5010     1.4350     0.7230 o          1 TQZ      -0.820800
     11 OXT         -4.9380    -0.7430     0.5120 o          1 TQZ      -0.820800
     12 H4           5.4890     0.5760     0.0250 hs         1 TQZ       0.206800
     13 HB2         -2.5230    -1.8110     0.4110 h1         1 TQZ       0.083200
     14 HB3         -1.7760    -0.4330     1.2140 h1         1 TQZ       0.083200
     15 HA          -3.2610    -0.4480    -1.4540 h1         1 TQZ       0.052700
     16 H           -2.8100     1.7590    -1.6510 hn         1 TQZ       0.342300
     17 H2          -2.2580     1.9260    -0.1500 hn         1 TQZ       0.342300
@<TRIPOS>BOND
     1     1     2 1   
     2     1    12 1   
     3     2     3 1   
     4     3     4 1   
     5     4     5 1   
     6     5     6 1   
     7     6     7 1   
     8     6    13 1   
     9     6    14 1   
    10     7     8 1   
    11     7     9 1   
    12     7    15 1   
    13     8    16 1   
    14     8    17 1   
    15     9    10 1   
    16     9    11 1   
@<TRIPOS>SUBSTRUCTURE
     1 TQZ         1 TEMP              0 ****  ****    0 ROOT
