@<TRIPOS>MOLECULE
TR0
   56    59     1     0     0
SMALL
No Charge or Current Charge


@<TRIPOS>ATOM
      1 CAA          6.5380     2.3010     2.8430 c3         1 TR0      -0.132400
      2 CAW          6.4210     2.0050     1.3760 cc         1 TR0       0.278300
      3 CAK          5.6870     0.9170     0.8820 cc         1 TR0      -0.236000
      4 NAQ          6.9910     2.7310     0.4290 nd         1 TR0      -0.361300
      5 OAT          6.5980     2.0680    -0.7910 os         1 TR0      -0.063700
      6 CAZ          5.8170     0.9900    -0.4640 cd         1 TR0       0.195300
      7 CAM          5.2640     0.1130    -1.5450 c3         1 TR0      -0.195700
      8 CAU          3.7420     0.0150    -1.4260 c          1 TR0       0.618100
      9 OAB          3.0350     0.9100    -1.8680 o          1 TR0      -0.581100
     10 N            3.1720    -1.0750    -0.7310 n          1 TR0      -0.397800
     11 CD2          3.8630    -2.3690    -0.5050 c5         1 TR0       0.070000
     12 CG           2.6880    -3.3500    -0.2010 c5         1 TR0       0.155300
     13 OD1          2.1280    -3.9170    -1.3910 oh         1 TR0      -0.650000
     14 CB           1.6790    -2.4100     0.5000 c5         1 TR0      -0.082400
     15 CA           1.7230    -1.1310    -0.3900 c5         1 TR0       0.037700
     16 C            1.1870     0.0710     0.4530 c          1 TR0       0.598100
     17 O            1.8350     0.8530     1.1380 o          1 TR0      -0.602100
     18 NAR         -0.1820     0.1440     0.3270 ns         1 TR0      -0.495900
     19 CAL         -1.0110     1.1480     0.9850 c3         1 TR0       0.152300
     20 CA0         -8.9960    -0.1410     0.5580 ca         1 TR0      -0.111000
     21 CAX         -2.4830     0.9200     0.6810 ca         1 TR0      -0.115300
     22 CAF         -3.2550     0.0750     1.4990 ca         1 TR0      -0.094000
     23 CA1         -8.5190    -0.0180    -1.8210 ca         1 TR0      -0.111000
     24 CAH         -4.6140    -0.1400     1.2140 ca         1 TR0      -0.104000
     25 CAE         -3.0850     1.5430    -0.4270 ca         1 TR0      -0.094000
     26 CA2         -7.1590     0.1990    -1.5370 ca         1 TR0      -0.098000
     27 CAG         -4.4450     1.3260    -0.7110 ca         1 TR0      -0.104000
     28 CAY         -5.2390     0.4800     0.1040 cp         1 TR0      -0.023000
     29 CBA         -6.6880     0.2500    -0.1990 cp         1 TR0      -0.039000
     30 CAJ         -7.6370     0.0750     0.8410 ca         1 TR0      -0.098000
     31 CAI         -9.4380    -0.1880    -0.7740 ca         1 TR0      -0.105000
     32 HAA1         7.0700     1.4930     3.3580 hc         1 TR0       0.055033
     33 HAA2         7.0860     3.2340     3.0190 hc         1 TR0       0.055033
     34 HAA3         5.5450     2.4000     3.2980 hc         1 TR0       0.055033
     35 HAK          5.1350     0.1890     1.4660 ha         1 TR0       0.152000
     36 HAM1         5.5080     0.5500    -2.5200 hc         1 TR0       0.079700
     37 HAM2         5.7420    -0.8650    -1.4570 hc         1 TR0       0.079700
     38 HD21         4.4390    -2.6940    -1.3820 h1         1 TR0       0.053700
     39 HD22         4.5480    -2.2940     0.3500 h1         1 TR0       0.053700
     40 HA           1.1180    -1.2420    -1.3000 h1         1 TR0       0.078700
     41 HG           3.0130    -4.1540     0.4740 h1         1 TR0       0.052700
     42 HD1          2.8030    -4.5250    -1.7660 ho         1 TR0       0.445000
     43 HB1C         0.6740    -2.8430     0.5690 hc         1 TR0       0.074200
     44 HB2C         2.0070    -2.1950     1.5240 hc         1 TR0       0.074200
     45 HAR         -0.6380    -0.5450    -0.2590 hn         1 TR0       0.322500
     46 HAL1        -0.8420     1.0980     2.0690 h1         1 TR0       0.059700
     47 HAL2        -0.7080     2.1450     0.6400 h1         1 TR0       0.059700
     48 HAJ         -7.3190     0.1210     1.8800 ha         1 TR0       0.114500
     49 HAI        -10.4900    -0.3560    -0.9940 ha         1 TR0       0.113000
     50 HAF         -2.8000    -0.4200     2.3550 ha         1 TR0       0.118500
     51 HAE         -2.5010     2.1980    -1.0690 ha         1 TR0       0.118500
     52 HA1         -8.8580    -0.0570    -2.8540 ha         1 TR0       0.113500
     53 HA2         -6.4620     0.3140    -2.3630 ha         1 TR0       0.114500
     54 HAH         -5.1840    -0.8080     1.8550 ha         1 TR0       0.117500
     55 HAG         -4.8880     1.8310    -1.5650 ha         1 TR0       0.117500
     56 HA0         -9.7080    -0.2700     1.3710 ha         1 TR0       0.113500
@<TRIPOS>BOND
     1     1     2 1   
     2     1    32 1   
     3     1    33 1   
     4     1    34 1   
     5     2     3 1   
     6     2     4 2   
     7     3     6 2   
     8     3    35 1   
     9     4     5 1   
    10     5     6 1   
    11     6     7 1   
    12     7     8 1   
    13     7    36 1   
    14     7    37 1   
    15     8     9 2   
    16     8    10 1   
    17    10    11 1   
    18    10    15 1   
    19    11    12 1   
    20    11    38 1   
    21    11    39 1   
    22    12    13 1   
    23    12    14 1   
    24    12    41 1   
    25    13    42 1   
    26    14    15 1   
    27    14    43 1   
    28    14    44 1   
    29    15    16 1   
    30    15    40 1   
    31    16    17 2   
    32    16    18 1   
    33    18    19 1   
    34    18    45 1   
    35    19    21 1   
    36    19    46 1   
    37    19    47 1   
    38    20    30 ar  
    39    20    31 ar  
    40    20    56 1   
    41    21    22 ar  
    42    21    25 ar  
    43    22    24 ar  
    44    22    50 1   
    45    23    26 ar  
    46    23    31 ar  
    47    23    52 1   
    48    24    28 ar  
    49    24    54 1   
    50    25    27 ar  
    51    25    51 1   
    52    26    29 ar  
    53    26    53 1   
    54    27    28 ar  
    55    27    55 1   
    56    28    29 1   
    57    29    30 ar  
    58    30    48 1   
    59    31    49 1   
@<TRIPOS>SUBSTRUCTURE
     1 TR0         1 TEMP              0 ****  ****    0 ROOT
