@<TRIPOS>MOLECULE
TR0
   56    59     1     0     0
SMALL
abcg2


@<TRIPOS>ATOM
      1 CAA          6.5000     4.5260     0.6580 c3         1 TR0      -0.132400
      2 CAW          6.0030     3.2410     0.1010 cc         1 TR0       0.278300
      3 CAK          5.8530     1.9980     0.7710 cc         1 TR0      -0.236000
      4 NAQ          5.6370     3.1390    -1.1450 nd         1 TR0      -0.361300
      5 OAT          5.2410     1.8450    -1.3270 os         1 TR0      -0.063700
      6 CAZ          5.3680     1.1710    -0.1820 cd         1 TR0       0.195300
      7 CAM          4.9820    -0.2580    -0.1690 c3         1 TR0      -0.195700
      8 CAU          3.4710    -0.4340    -0.1680 c          1 TR0       0.618100
      9 OAB          2.7090     0.5180    -0.2430 o          1 TR0      -0.581100
     10 N            3.0260    -1.6940    -0.0810 n          1 TR0      -0.397800
     11 CD2          3.8240    -2.9080    -0.0130 c5         1 TR0       0.070000
     12 CG           2.8440    -3.9800    -0.4820 c5         1 TR0       0.155300
     13 OD1          2.7070    -3.9940    -1.8830 oh         1 TR0      -0.650000
     14 CB           1.5340    -3.4860     0.1090 c5         1 TR0      -0.082400
     15 CA           1.6010    -1.9620    -0.0670 c5         1 TR0       0.037700
     16 C            0.9170    -1.2520     1.0950 c          1 TR0       0.598100
     17 O            1.4390    -1.1730     2.1950 o          1 TR0      -0.602100
     18 NAR         -0.3160    -0.8050     0.8300 ns         1 TR0      -0.495900
     19 CAL         -1.1300    -0.1360     1.8290 c3         1 TR0       0.152300
     20 CA0         -8.8520     0.4390    -0.1370 ca         1 TR0      -0.111000
     21 CAX         -2.5170     0.0860     1.2960 ca         1 TR0      -0.115300
     22 CAF         -3.4990    -0.8880     1.4410 ca         1 TR0      -0.094000
     23 CA1         -7.9010     1.5030    -2.0670 ca         1 TR0      -0.111000
     24 CAH         -4.7710    -0.6970     0.9240 ca         1 TR0      -0.104000
     25 CAE         -2.8370     1.2560     0.6140 ca         1 TR0      -0.094000
     26 CA2         -6.6300     1.3120    -1.5450 ca         1 TR0      -0.098000
     27 CAG         -4.1070     1.4490     0.0940 ca         1 TR0      -0.104000
     28 CAY         -5.0960     0.4760     0.2400 cp         1 TR0      -0.023000
     29 CBA         -6.4510     0.6800    -0.3120 cp         1 TR0      -0.039000
     30 CAJ         -7.5810     0.2470     0.3830 ca         1 TR0      -0.098000
     31 CAI         -9.0180     1.0670    -1.3650 ca         1 TR0      -0.105000
     32 HAA1         7.5220     4.4190     1.0210 hc         1 TR0       0.055033
     33 HAA2         6.4810     5.3140    -0.0920 hc         1 TR0       0.055033
     34 HAA3         5.8860     4.8390     1.5030 hc         1 TR0       0.055033
     35 HAK          6.0720     1.7680     1.8000 ha         1 TR0       0.152000
     36 HAM1         5.4080    -0.7740    -1.0350 hc         1 TR0       0.079700
     37 HAM2         5.4150    -0.7340     0.7130 hc         1 TR0       0.079700
     38 HD21         4.7090    -2.8540    -0.6500 h1         1 TR0       0.053700
     39 HD22         4.1540    -3.1130     1.0090 h1         1 TR0       0.053700
     40 HA           1.1510    -1.6590    -1.0170 h1         1 TR0       0.078700
     41 HG           3.1260    -4.9640    -0.0910 h1         1 TR0       0.052700
     42 HD1          3.5470    -4.2580    -2.2710 ho         1 TR0       0.445000
     43 HB1C         0.6590    -3.9220    -0.3710 hc         1 TR0       0.074200
     44 HB2C         1.5030    -3.7480     1.1690 hc         1 TR0       0.074200
     45 HAR         -0.6490    -0.8200    -0.1210 hn         1 TR0       0.322500
     46 HAL1        -1.1660    -0.7500     2.7310 h1         1 TR0       0.059700
     47 HAL2        -0.6760     0.8190     2.1080 h1         1 TR0       0.059700
     48 HAJ         -7.4700    -0.2270     1.3510 ha         1 TR0       0.114500
     49 HAI        -10.0090     1.2160    -1.7720 ha         1 TR0       0.113000
     50 HAF         -3.2690    -1.8090     1.9630 ha         1 TR0       0.118500
     51 HAE         -2.0900     2.0310     0.4970 ha         1 TR0       0.118500
     52 HA1         -8.0190     1.9890    -3.0270 ha         1 TR0       0.113500
     53 HA2         -5.7680     1.6400    -2.1120 ha         1 TR0       0.114500
     54 HAH         -5.5110    -1.4780     1.0390 ha         1 TR0       0.117500
     55 HAG         -4.3350     2.3790    -0.4120 ha         1 TR0       0.117500
     56 HA0         -9.7170     0.1050     0.4210 ha         1 TR0       0.113500
@<TRIPOS>BOND
     1     1     2 1   
     2     1    32 1   
     3     1    33 1   
     4     1    34 1   
     5     2     3 1   
     6     2     4 2   
     7     3     6 2   
     8     3    35 1   
     9     4     5 1   
    10     5     6 1   
    11     6     7 1   
    12     7     8 1   
    13     7    36 1   
    14     7    37 1   
    15     8     9 2   
    16     8    10 1   
    17    10    11 1   
    18    10    15 1   
    19    11    12 1   
    20    11    38 1   
    21    11    39 1   
    22    12    13 1   
    23    12    14 1   
    24    12    41 1   
    25    13    42 1   
    26    14    15 1   
    27    14    43 1   
    28    14    44 1   
    29    15    16 1   
    30    15    40 1   
    31    16    17 2   
    32    16    18 1   
    33    18    19 1   
    34    18    45 1   
    35    19    21 1   
    36    19    46 1   
    37    19    47 1   
    38    20    30 ar  
    39    20    31 ar  
    40    20    56 1   
    41    21    22 ar  
    42    21    25 ar  
    43    22    24 ar  
    44    22    50 1   
    45    23    26 ar  
    46    23    31 ar  
    47    23    52 1   
    48    24    28 ar  
    49    24    54 1   
    50    25    27 ar  
    51    25    51 1   
    52    26    29 ar  
    53    26    53 1   
    54    27    28 ar  
    55    27    55 1   
    56    28    29 1   
    57    29    30 ar  
    58    30    48 1   
    59    31    49 1   
@<TRIPOS>SUBSTRUCTURE
     1 TR0         1 TEMP              0 ****  ****    0 ROOT
