@<TRIPOS>MOLECULE
TR1
   63    64     1     0     0
SMALL
No Charge or Current Charge


@<TRIPOS>ATOM
      1 N           39.8030   -48.6980    -1.7000 n7         1 TR1      -0.887400
      2 CA          39.6650   -48.9910    -0.2270 c3         1 TR1       0.093500
      3 C           41.0130   -48.9730     0.5640 c          1 TR1       0.592100
      4 O           41.0840   -48.8240     1.7770 o          1 TR1      -0.609100
      5 C41         40.5310   -46.7230    -7.8790 cp         1 TR1      -0.035000
      6 C42         39.8230   -45.7000    -8.5620 ca         1 TR1      -0.099500
      7 C43         41.3360   -47.5980    -8.6520 ca         1 TR1      -0.099500
      8 C44         39.9160   -45.5600    -9.9570 ca         1 TR1      -0.111000
      9 C45         41.4280   -47.4590   -10.0480 ca         1 TR1      -0.111000
     10 C46         40.7180   -46.4390   -10.7010 ca         1 TR1      -0.107000
     11 C47         40.2460   -47.1550    -3.5600 ca         1 TR1      -0.087300
     12 C48         39.1320   -46.7310    -4.3070 ca         1 TR1      -0.096000
     13 C49         41.4520   -47.4400    -4.2250 ca         1 TR1      -0.096000
     14 C50         39.2250   -46.5910    -5.7030 ca         1 TR1      -0.103500
     15 C51         41.5430   -47.3000    -5.6210 ca         1 TR1      -0.103500
     16 C52         40.4330   -46.8720    -6.3910 cp         1 TR1      -0.029000
     17 CM2         40.1490   -47.3050    -2.0490 c3         1 TR1       0.198100
     18 CB          38.9670   -50.3570    -0.0200 c3         1 TR1       0.077600
     19 SG          37.3350   -50.5320    -0.9000 sh         1 TR1      -0.447800
     20 N2          42.1330   -49.1140    -0.2200 ns         1 TR1      -0.476900
     21 CA2         43.5290   -49.0940     0.2630 c3         1 TR1       0.030000
     22 C2          44.5400   -49.1650    -0.9030 c          1 TR1       0.581100
     23 O2          44.2030   -49.2550    -2.0770 o          1 TR1      -0.605100
     24 N3          45.8650   -49.1240    -0.5250 ns         1 TR1      -0.492900
     25 CA3         47.0140   -49.1380    -1.4610 c3         1 TR1       0.064700
     26 CB3         47.2150   -47.7570    -2.1610 c3         1 TR1      -0.068700
     27 CG1         47.5330   -46.6130    -1.1650 c3         1 TR1      -0.090100
     28 CG2         48.2630   -47.8110    -3.2980 c3         1 TR1      -0.090100
     29 C3          48.2900   -49.6520    -0.7340 c          1 TR1       0.585100
     30 O3          48.4680   -49.5630     0.4760 o          1 TR1      -0.484000
     31 OE          49.1070   -50.3640    -1.5760 os         1 TR1      -0.442100
     32 CM3         50.3040   -50.9470    -1.0280 c3         1 TR1       0.152900
     33 HN          38.8950   -48.8910    -2.1400 hn         1 TR1       0.422000
     34 HA          39.0270   -48.2280     0.2410 h1         1 TR1       0.075700
     35 H42         39.2070   -45.0000    -8.0040 ha         1 TR1       0.114000
     36 H43         41.8830   -48.4030    -8.1680 ha         1 TR1       0.114000
     37 H44         39.3670   -44.7670   -10.4610 ha         1 TR1       0.113000
     38 H45         42.0480   -48.1430   -10.6230 ha         1 TR1       0.113000
     39 H46         40.7900   -46.3310   -11.7810 ha         1 TR1       0.113000
     40 H48         38.1900   -46.5120    -3.8080 ha         1 TR1       0.118500
     41 H49         42.3210   -47.7700    -3.6600 ha         1 TR1       0.118500
     42 H50         38.3450   -46.2740    -6.2580 ha         1 TR1       0.115000
     43 H51         42.4920   -47.5140    -6.1070 ha         1 TR1       0.115000
     44 HM21        39.3880   -46.6100    -1.6670 h1         1 TR1       0.054700
     45 HM22        41.1080   -47.0090    -1.6010 h1         1 TR1       0.054700
     46 HB1         39.6320   -51.1590    -0.3650 h1         1 TR1       0.086200
     47 HB2         38.7950   -50.5080     1.0540 h1         1 TR1       0.086200
     48 HSG         37.8540   -50.7730    -2.1290 hs         1 TR1       0.211800
     49 HN2         41.9500   -49.1920    -1.2180 hn         1 TR1       0.350500
     50 HA21        43.7120   -48.1680     0.8240 h1         1 TR1       0.072200
     51 HA22        43.7030   -49.9500     0.9260 h1         1 TR1       0.072200
     52 HN3         46.0580   -49.0630     0.4690 hn         1 TR1       0.325500
     53 HA3         46.7960   -49.8810    -2.2390 h1         1 TR1       0.092700
     54 HB3         46.2620   -47.5010    -2.6400 hc         1 TR1       0.055700
     55 HG11        47.5990   -45.6530    -1.6910 hc         1 TR1       0.042033
     56 HG12        46.7480   -46.5220    -0.4050 hc         1 TR1       0.042033
     57 HG13        48.4880   -46.7860    -0.6550 hc         1 TR1       0.042033
     58 HG21        48.2730   -46.8670    -3.8570 hc         1 TR1       0.042033
     59 HG22        49.2720   -47.9790    -2.9020 hc         1 TR1       0.042033
     60 HG23        48.0300   -48.6170    -4.0030 hc         1 TR1       0.042033
     61 HM31        50.8630   -51.4770    -1.8100 h1         1 TR1       0.050367
     62 HM32        50.9590   -50.1730    -0.6080 h1         1 TR1       0.050367
     63 HM33        50.0620   -51.6670    -0.2350 h1         1 TR1       0.050367
@<TRIPOS>BOND
     1     1     2 1   
     2     1    17 1   
     3     1    33 1   
     4     2     3 1   
     5     2    18 1   
     6     2    34 1   
     7     3     4 2   
     8     3    20 1   
     9     5     6 ar  
    10     5     7 ar  
    11     5    16 1   
    12     6     8 ar  
    13     6    35 1   
    14     7     9 ar  
    15     7    36 1   
    16     8    10 ar  
    17     8    37 1   
    18     9    10 ar  
    19     9    38 1   
    20    10    39 1   
    21    11    12 ar  
    22    11    13 ar  
    23    11    17 1   
    24    12    14 ar  
    25    12    40 1   
    26    13    15 ar  
    27    13    41 1   
    28    14    16 ar  
    29    14    42 1   
    30    15    16 ar  
    31    15    43 1   
    32    17    44 1   
    33    17    45 1   
    34    18    19 1   
    35    18    46 1   
    36    18    47 1   
    37    19    48 1   
    38    20    21 1   
    39    20    49 1   
    40    21    22 1   
    41    21    50 1   
    42    21    51 1   
    43    22    23 2   
    44    22    24 1   
    45    24    25 1   
    46    24    52 1   
    47    25    26 1   
    48    25    29 1   
    49    25    53 1   
    50    26    27 1   
    51    26    28 1   
    52    26    54 1   
    53    27    55 1   
    54    27    56 1   
    55    27    57 1   
    56    28    58 1   
    57    28    59 1   
    58    28    60 1   
    59    29    30 2   
    60    29    31 1   
    61    31    32 1   
    62    32    61 1   
    63    32    62 1   
    64    32    63 1   
@<TRIPOS>SUBSTRUCTURE
     1 TR1         1 TEMP              0 ****  ****    0 ROOT
