@<TRIPOS>MOLECULE
TR1
   63    64     1     0     0
SMALL
abcg2


@<TRIPOS>ATOM
      1 N           40.0030   -47.9930    -1.8430 n7         1 TR1      -0.887400
      2 CA          40.1720   -47.7970    -0.4130 c3         1 TR1       0.093500
      3 C           41.5760   -48.2270     0.0320 c          1 TR1       0.592100
      4 O           42.1220   -47.7220     1.0120 o          1 TR1      -0.609100
      5 C41         40.4070   -48.2390    -8.2960 cp         1 TR1      -0.035000
      6 C42         39.9720   -47.2950    -9.2350 ca         1 TR1      -0.099500
      7 C43         40.7940   -49.5020    -8.7600 ca         1 TR1      -0.099500
      8 C44         39.9230   -47.6040   -10.5890 ca         1 TR1      -0.111000
      9 C45         40.7450   -49.8120   -10.1130 ca         1 TR1      -0.111000
     10 C46         40.3100   -48.8640   -11.0350 ca         1 TR1      -0.107000
     11 C47         40.5800   -47.2560    -4.1080 ca         1 TR1      -0.087300
     12 C48         39.5810   -46.7300    -4.9230 ca         1 TR1      -0.096000
     13 C49         41.5170   -48.1170    -4.6800 ca         1 TR1      -0.096000
     14 C50         39.5200   -47.0500    -6.2740 ca         1 TR1      -0.103500
     15 C51         41.4620   -48.4370    -6.0280 ca         1 TR1      -0.103500
     16 C52         40.4620   -47.9070    -6.8540 cp         1 TR1      -0.029000
     17 CM2         40.6390   -46.9340    -2.6410 c3         1 TR1       0.198100
     18 CB          39.1590   -48.6140     0.3910 c3         1 TR1       0.077600
     19 SG          37.4250   -48.0700     0.1850 sh         1 TR1      -0.447800
     20 N2          42.1180   -49.2210    -0.6900 ns         1 TR1      -0.476900
     21 CA2         43.4510   -49.7040    -0.4430 c3         1 TR1       0.030000
     22 C2          44.5250   -48.7280    -0.9260 c          1 TR1       0.581100
     23 O2          44.3550   -47.9960    -1.8970 o          1 TR1      -0.605100
     24 N3          45.6790   -48.7690    -0.2390 ns         1 TR1      -0.492900
     25 CA3         46.8170   -47.9490    -0.5990 c3         1 TR1       0.064700
     26 CB3         47.9160   -48.0630     0.4860 c3         1 TR1      -0.068700
     27 CG1         48.5520   -49.4530     0.5590 c3         1 TR1      -0.090100
     28 CG2         48.9810   -46.9790     0.3280 c3         1 TR1      -0.090100
     29 C3          47.3310   -48.3370    -1.9840 c          1 TR1       0.585100
     30 O3          47.2990   -49.4530    -2.4470 o          1 TR1      -0.484000
     31 OE          47.8590   -47.2830    -2.6090 os         1 TR1      -0.442100
     32 CM3         48.4550   -47.5280    -3.9000 c3         1 TR1       0.152900
     33 HN          39.0160   -48.0310    -2.0710 hn         1 TR1       0.422000
     34 HA          40.0770   -46.7430    -0.1190 h1         1 TR1       0.075700
     35 H42         39.6890   -46.3030    -8.9060 ha         1 TR1       0.114000
     36 H43         41.1170   -50.2560    -8.0530 ha         1 TR1       0.114000
     37 H44         39.5910   -46.8560   -11.2970 ha         1 TR1       0.113000
     38 H45         41.0420   -50.7980   -10.4470 ha         1 TR1       0.113000
     39 H46         40.2730   -49.1050   -12.0900 ha         1 TR1       0.113000
     40 H48         38.8400   -46.0630    -4.4970 ha         1 TR1       0.118500
     41 H49         42.3080   -48.5280    -4.0630 ha         1 TR1       0.118500
     42 H50         38.7230   -46.6400    -6.8800 ha         1 TR1       0.115000
     43 H51         42.2200   -49.0840    -6.4490 ha         1 TR1       0.115000
     44 HM21        40.1730   -45.9580    -2.4480 h1         1 TR1       0.054700
     45 HM22        41.6820   -46.8640    -2.3270 h1         1 TR1       0.054700
     46 HB1         39.2270   -49.6720     0.1410 h1         1 TR1       0.086200
     47 HB2         39.3700   -48.4980     1.4530 h1         1 TR1       0.086200
     48 HSG         37.1390   -48.7700    -0.9250 hs         1 TR1       0.211800
     49 HN2         41.6350   -49.4680    -1.5430 hn         1 TR1       0.350500
     50 HA21        43.5810   -49.9110     0.6190 h1         1 TR1       0.072200
     51 HA22        43.5870   -50.6390    -0.9890 h1         1 TR1       0.072200
     52 HN3         45.7560   -49.3770     0.5610 hn         1 TR1       0.325500
     53 HA3         46.4990   -46.9070    -0.6530 h1         1 TR1       0.092700
     54 HB3         47.3870   -47.8770     1.4270 hc         1 TR1       0.055700
     55 HG11        49.2160   -49.5060     1.4230 hc         1 TR1       0.042033
     56 HG12        47.8110   -50.2470     0.6590 hc         1 TR1       0.042033
     57 HG13        49.1460   -49.6590    -0.3340 hc         1 TR1       0.042033
     58 HG21        49.6660   -47.0100     1.1770 hc         1 TR1       0.042033
     59 HG22        49.5660   -47.1270    -0.5810 hc         1 TR1       0.042033
     60 HG23        48.5320   -45.9840     0.2860 hc         1 TR1       0.042033
     61 HM31        48.8340   -46.5660    -4.2310 h1         1 TR1       0.050367
     62 HM32        49.2650   -48.2490    -3.8080 h1         1 TR1       0.050367
     63 HM33        47.7030   -47.9030    -4.5930 h1         1 TR1       0.050367
@<TRIPOS>BOND
     1     1     2 1   
     2     1    17 1   
     3     1    33 1   
     4     2     3 1   
     5     2    18 1   
     6     2    34 1   
     7     3     4 2   
     8     3    20 1   
     9     5     6 ar  
    10     5     7 ar  
    11     5    16 1   
    12     6     8 ar  
    13     6    35 1   
    14     7     9 ar  
    15     7    36 1   
    16     8    10 ar  
    17     8    37 1   
    18     9    10 ar  
    19     9    38 1   
    20    10    39 1   
    21    11    12 ar  
    22    11    13 ar  
    23    11    17 1   
    24    12    14 ar  
    25    12    40 1   
    26    13    15 ar  
    27    13    41 1   
    28    14    16 ar  
    29    14    42 1   
    30    15    16 ar  
    31    15    43 1   
    32    17    44 1   
    33    17    45 1   
    34    18    19 1   
    35    18    46 1   
    36    18    47 1   
    37    19    48 1   
    38    20    21 1   
    39    20    49 1   
    40    21    22 1   
    41    21    50 1   
    42    21    51 1   
    43    22    23 2   
    44    22    24 1   
    45    24    25 1   
    46    24    52 1   
    47    25    26 1   
    48    25    29 1   
    49    25    53 1   
    50    26    27 1   
    51    26    28 1   
    52    26    54 1   
    53    27    55 1   
    54    27    56 1   
    55    27    57 1   
    56    28    58 1   
    57    28    59 1   
    58    28    60 1   
    59    29    30 2   
    60    29    31 1   
    61    31    32 1   
    62    32    61 1   
    63    32    62 1   
    64    32    63 1   
@<TRIPOS>SUBSTRUCTURE
     1 TR1         1 TEMP              0 ****  ****    0 ROOT
