@<TRIPOS>MOLECULE
TR2
   15    16     1     0     0
SMALL
abcg2


@<TRIPOS>ATOM
      1 C10          0.0470    -0.2750     0.0130 ca         1 TR2      -0.258000
      2 O01         -1.3390    -2.2170    -0.0360 oh         1 TR2      -0.554100
      3 C02         -1.2110    -0.8700     0.0180 ca         1 TR2       0.176100
      4 C03         -2.2990    -0.0180     0.0240 ca         1 TR2      -0.184000
      5 C04         -2.0840     1.3640     0.0240 ca         1 TR2       0.350900
      6 N05         -0.8960     1.9390     0.0210 nb         1 TR2      -0.638000
      7 C06          0.1640     1.1250     0.0130 ca         1 TR2       0.379800
      8 C07          1.5380     1.5360    -0.0000 cc         1 TR2      -0.282800
      9 C08          2.3840     0.4830    -0.0140 cd         1 TR2      -0.153400
     10 S09          1.5850    -1.0540    -0.0140 ss         1 TR2       0.096400
     11 HO01        -1.3040    -2.5970     0.8500 ho         1 TR2       0.472000
     12 H03         -3.3070    -0.4110     0.0210 ha         1 TR2       0.134000
     13 H04         -2.9420     2.0280     0.0280 h4         1 TR2       0.023100
     14 H07          1.8540     2.5690     0.0010 ha         1 TR2       0.219000
     15 H08          3.4630     0.5120    -0.0270 h4         1 TR2       0.220000
@<TRIPOS>BOND
     1     1     3 ar  
     2     1     7 ar  
     3     1    10 1   
     4     2     3 1   
     5     2    11 1   
     6     3     4 ar  
     7     4     5 ar  
     8     4    12 1   
     9     5     6 ar  
    10     5    13 1   
    11     6     7 ar  
    12     7     8 1   
    13     8     9 2   
    14     8    14 1   
    15     9    10 1   
    16     9    15 1   
@<TRIPOS>SUBSTRUCTURE
     1 TR2         1 TEMP              0 ****  ****    0 ROOT
