@<TRIPOS>MOLECULE
TR2
   15    16     1     0     0
SMALL
No Charge or Current Charge


@<TRIPOS>ATOM
      1 C10         -0.0170    -0.2840     0.1240 ca         1 TR2      -0.258000
      2 O01         -1.5020    -2.1770     0.2350 oh         1 TR2      -0.554100
      3 C02         -1.3000    -0.8360     0.1210 ca         1 TR2       0.176100
      4 C03         -2.3840     0.0420    -0.0050 ca         1 TR2      -0.184000
      5 C04         -2.1310     1.4230    -0.1210 ca         1 TR2       0.350900
      6 N05         -0.8820     1.9500    -0.1170 nb         1 TR2      -0.638000
      7 C06          0.1370     1.0810     0.0050 ca         1 TR2       0.379800
      8 C07          1.5120     1.4950     0.0250 cc         1 TR2      -0.282800
      9 C08          2.3770     0.4180     0.1600 cd         1 TR2      -0.153400
     10 S09          1.5290    -1.1530     0.2680 ss         1 TR2       0.096400
     11 HO01        -0.6260    -2.6100     0.3120 ho         1 TR2       0.472000
     12 H03         -3.4030    -0.3290    -0.0140 ha         1 TR2       0.134000
     13 H04         -2.9550     2.1290    -0.2200 h4         1 TR2       0.023100
     14 H07          1.8370     2.5280    -0.0560 ha         1 TR2       0.219000
     15 H08          3.4620     0.4370     0.2040 h4         1 TR2       0.220000
@<TRIPOS>BOND
     1     1     3 ar  
     2     1     7 ar  
     3     1    10 1   
     4     2     3 1   
     5     2    11 1   
     6     3     4 ar  
     7     4     5 ar  
     8     4    12 1   
     9     5     6 ar  
    10     5    13 1   
    11     6     7 ar  
    12     7     8 1   
    13     8     9 2   
    14     8    14 1   
    15     9    10 1   
    16     9    15 1   
@<TRIPOS>SUBSTRUCTURE
     1 TR2         1 TEMP              0 ****  ****    0 ROOT
