@<TRIPOS>MOLECULE
TR3
   48    51     1     0     0
SMALL
No Charge or Current Charge


@<TRIPOS>ATOM
      1 C1           0.1230    -2.4490     0.6790 ca         1 TR3      -0.200000
      2 C2          -1.2750    -2.6150     0.7890 ca         1 TR3       0.000000
      3 C3          -2.0710    -1.4940     0.5360 ca         1 TR3      -0.239900
      4 C4          -1.5450    -0.2900     0.1970 ca         1 TR3       0.013800
      5 C5          -0.1630    -0.0930     0.0730 ca         1 TR3      -0.164000
      6 C6           0.6910    -1.1980     0.3240 ca         1 TR3       0.014000
      7 N10         -3.8480    -0.0310     0.2310 nc         1 TR3      -0.527100
      8 N11         -2.6090     0.5790     0.0140 na         1 TR3       0.167800
      9 C12         -3.4990    -1.2850     0.5420 cd         1 TR3       0.386800
     10 C13         -2.3700     4.6750    -0.9430 ca         1 TR3      -0.115000
     11 C14         -3.0520     3.7930    -1.7980 ca         1 TR3      -0.097000
     12 C15         -3.1340     2.4260    -1.4780 ca         1 TR3      -0.112000
     13 C16         -2.5340     1.9350    -0.3010 ca         1 TR3       0.028800
     14 C17         -1.8530     2.8260     0.5530 ca         1 TR3      -0.112000
     15 C18         -1.7710     4.1920     0.2330 ca         1 TR3      -0.097000
     16 S24         -4.6970    -2.5270     0.9200 ss         1 TR3      -0.235200
     17 C25         -6.3100    -1.6400     0.7560 c3         1 TR3       0.027900
     18 C26          2.9780    -0.0830    -0.0440 c          1 TR3       0.607100
     19 N27          2.1070    -1.1290     0.2340 ns         1 TR3      -0.146000
     20 O28          2.6230     1.0680    -0.2700 o          1 TR3      -0.576100
     21 C30          6.7830    -0.2290     1.0360 c6         1 TR3       0.149300
     22 C31          5.3000     0.2150     1.0830 c6         1 TR3      -0.107400
     23 C32          4.4780    -0.4650    -0.0470 c6         1 TR3      -0.140700
     24 C33          5.1540    -0.3300    -1.4400 c6         1 TR3      -0.107400
     25 C34          6.6430    -0.7510    -1.3780 c6         1 TR3       0.149300
     26 N35          7.3640    -0.0100    -0.3120 n7         1 TR3      -0.844400
     27 H1           0.7700    -3.3020     0.8710 ha         1 TR3       0.111000
     28 H2          -1.7130    -3.5750     1.0590 ha         1 TR3       0.126000
     29 H5           0.2150     0.8840    -0.2110 ha         1 TR3       0.161000
     30 H13         -2.3060     5.7330    -1.1920 ha         1 TR3       0.116000
     31 H14         -3.5160     4.1670    -2.7090 ha         1 TR3       0.117000
     32 H15         -3.6620     1.7460    -2.1430 ha         1 TR3       0.130500
     33 H17         -1.3890     2.4580     1.4660 ha         1 TR3       0.130500
     34 H18         -1.2440     4.8760     0.8950 ha         1 TR3       0.117000
     35 H25         -6.3470    -0.8020     1.4640 h1         1 TR3       0.069367
     36 H25A        -6.4210    -1.2560    -0.2650 h1         1 TR3       0.069367
     37 H25B        -7.1350    -2.3300     0.9730 h1         1 TR3       0.069367
     38 HN27         2.5670    -2.0140     0.4040 hn         1 TR3       0.151000
     39 H30          7.3590     0.3330     1.7860 h1         1 TR3       0.053950
     40 H30A         6.8550    -1.2960     1.2990 h1         1 TR3       0.053950
     41 H31          4.8710    -0.0280     2.0650 hc         1 TR3       0.057450
     42 H31A         5.2420     1.3080     0.9790 hc         1 TR3       0.057450
     43 H32          4.5020    -1.5400     0.1830 hc         1 TR3       0.055700
     44 H33          4.6260    -0.9460    -2.1810 hc         1 TR3       0.057450
     45 H33A         5.0830     0.7090    -1.7900 hc         1 TR3       0.057450
     46 H34          6.7110    -1.8330    -1.1840 h1         1 TR3       0.053950
     47 H34A         7.1210    -0.5610    -2.3510 h1         1 TR3       0.053950
     48 HN35         7.3110     0.9930    -0.5260 hn         1 TR3       0.408000
@<TRIPOS>BOND
     1     1     2 ar  
     2     1     6 ar  
     3     1    27 1   
     4     2     3 ar  
     5     2    28 1   
     6     3     4 ar  
     7     3     9 1   
     8     4     5 ar  
     9     4     8 1   
    10     5     6 ar  
    11     5    29 1   
    12     6    19 1   
    13     7     8 1   
    14     7     9 2   
    15     8    13 1   
    16     9    16 1   
    17    10    11 ar  
    18    10    15 ar  
    19    10    30 1   
    20    11    12 ar  
    21    11    31 1   
    22    12    13 ar  
    23    12    32 1   
    24    13    14 ar  
    25    14    15 ar  
    26    14    33 1   
    27    15    34 1   
    28    16    17 1   
    29    17    35 1   
    30    17    36 1   
    31    17    37 1   
    32    18    19 1   
    33    18    20 2   
    34    18    23 1   
    35    19    38 1   
    36    21    22 1   
    37    21    26 1   
    38    21    39 1   
    39    21    40 1   
    40    22    23 1   
    41    22    41 1   
    42    22    42 1   
    43    23    24 1   
    44    23    43 1   
    45    24    25 1   
    46    24    44 1   
    47    24    45 1   
    48    25    26 1   
    49    25    46 1   
    50    25    47 1   
    51    26    48 1   
@<TRIPOS>SUBSTRUCTURE
     1 TR3         1 TEMP              0 ****  ****    0 ROOT
