@<TRIPOS>MOLECULE
TR3
   48    51     1     0     0
SMALL
abcg2


@<TRIPOS>ATOM
      1 C1           0.1650    -2.4700     0.6620 ca         1 TR3      -0.200000
      2 C2          -1.1920    -2.6630     0.6420 ca         1 TR3       0.000000
      3 C3          -2.0180    -1.5540     0.4370 ca         1 TR3      -0.239900
      4 C4          -1.4470    -0.2860     0.2700 ca         1 TR3       0.013800
      5 C5          -0.0650    -0.0750     0.2650 ca         1 TR3      -0.164000
      6 C6           0.7370    -1.1870     0.4640 ca         1 TR3       0.014000
      7 N10         -3.6760    -0.0690     0.1050 nc         1 TR3      -0.527100
      8 N11         -2.4870     0.5780     0.0880 na         1 TR3       0.167800
      9 C12         -3.4200    -1.3290     0.3150 cd         1 TR3       0.386800
     10 C13         -2.4030     4.6970    -0.6480 ca         1 TR3      -0.115000
     11 C14         -3.3180     3.8840    -1.3060 ca         1 TR3      -0.097000
     12 C15         -3.3450     2.5190    -1.0690 ca         1 TR3      -0.112000
     13 C16         -2.4570     1.9620    -0.1530 ca         1 TR3       0.028800
     14 C17         -1.5550     2.7730     0.5280 ca         1 TR3      -0.112000
     15 C18         -1.5240     4.1350     0.2680 ca         1 TR3      -0.097000
     16 S24         -4.6420    -2.5640     0.4300 ss         1 TR3      -0.235200
     17 C25         -6.1410    -1.6020     0.1360 c3         1 TR3       0.027900
     18 C26          2.9660    -0.0940     0.2460 c          1 TR3       0.607100
     19 N27          2.1300    -1.1400     0.4890 ns         1 TR3      -0.146000
     20 O28          2.5780     1.0340    -0.0030 o          1 TR3      -0.576100
     21 C30          6.7850     0.2890     0.6870 c6         1 TR3       0.149300
     22 C31          5.3080     0.6630     0.7950 c6         1 TR3      -0.107400
     23 C32          4.4340    -0.4680     0.2610 c6         1 TR3      -0.140700
     24 C33          4.8750    -0.8540    -1.1590 c6         1 TR3      -0.107400
     25 C34          6.3700    -1.1630    -1.1870 c6         1 TR3       0.149300
     26 N35          7.2040    -0.1010    -0.6490 n7         1 TR3      -0.844400
     27 H1           0.8210    -3.3180     0.8210 ha         1 TR3       0.111000
     28 H2          -1.6030    -3.6540     0.7810 ha         1 TR3       0.126000
     29 H5           0.3580     0.9010     0.1030 ha         1 TR3       0.161000
     30 H13         -2.3790     5.7600    -0.8440 ha         1 TR3       0.116000
     31 H14         -4.0100     4.3140    -2.0190 ha         1 TR3       0.117000
     32 H15         -4.0510     1.8860    -1.5910 ha         1 TR3       0.130500
     33 H17         -0.8960     2.3530     1.2770 ha         1 TR3       0.130500
     34 H18         -0.8180     4.7600     0.7980 ha         1 TR3       0.117000
     35 H25         -6.2800    -0.8460     0.9050 h1         1 TR3       0.069367
     36 H25A        -6.1170    -1.1310    -0.8430 h1         1 TR3       0.069367
     37 H25B        -6.9670    -2.3090     0.1750 h1         1 TR3       0.069367
     38 HN27         2.5790    -2.0210     0.6910 hn         1 TR3       0.151000
     39 H30          7.4050     1.1250     1.0190 h1         1 TR3       0.053950
     40 H30A         6.9990    -0.5430     1.3670 h1         1 TR3       0.053950
     41 H31          5.0570     0.8780     1.8370 hc         1 TR3       0.057450
     42 H31A         5.1190     1.5770     0.2260 hc         1 TR3       0.057450
     43 H32          4.5730    -1.3440     0.9050 hc         1 TR3       0.055700
     44 H33          4.3090    -1.7190    -1.5140 hc         1 TR3       0.057450
     45 H33A         4.6630    -0.0270    -1.8450 hc         1 TR3       0.057450
     46 H34          6.5630    -2.0740    -0.6100 h1         1 TR3       0.053950
     47 H34A         6.6850    -1.3720    -2.2110 h1         1 TR3       0.053950
     48 HN35         7.1440     0.7050    -1.2610 hn         1 TR3       0.408000
@<TRIPOS>BOND
     1     1     2 ar  
     2     1     6 ar  
     3     1    27 1   
     4     2     3 ar  
     5     2    28 1   
     6     3     4 ar  
     7     3     9 1   
     8     4     5 ar  
     9     4     8 1   
    10     5     6 ar  
    11     5    29 1   
    12     6    19 1   
    13     7     8 1   
    14     7     9 2   
    15     8    13 1   
    16     9    16 1   
    17    10    11 ar  
    18    10    15 ar  
    19    10    30 1   
    20    11    12 ar  
    21    11    31 1   
    22    12    13 ar  
    23    12    32 1   
    24    13    14 ar  
    25    14    15 ar  
    26    14    33 1   
    27    15    34 1   
    28    16    17 1   
    29    17    35 1   
    30    17    36 1   
    31    17    37 1   
    32    18    19 1   
    33    18    20 2   
    34    18    23 1   
    35    19    38 1   
    36    21    22 1   
    37    21    26 1   
    38    21    39 1   
    39    21    40 1   
    40    22    23 1   
    41    22    41 1   
    42    22    42 1   
    43    23    24 1   
    44    23    43 1   
    45    24    25 1   
    46    24    44 1   
    47    24    45 1   
    48    25    26 1   
    49    25    46 1   
    50    25    47 1   
    51    26    48 1   
@<TRIPOS>SUBSTRUCTURE
     1 TR3         1 TEMP              0 ****  ****    0 ROOT
