@<TRIPOS>MOLECULE
TR4
   26    27     1     0     0
SMALL
bcc


@<TRIPOS>ATOM
      1 C01          2.4250     3.0040    -0.3400 c3         1 TR4      -0.028000
      2 S02          3.0830     1.3300    -0.1900 ss         1 TR4      -0.263400
      3 C03          1.6160     0.4040    -0.0790 cc         1 TR4       0.492600
      4 N04          0.4210     0.9160    -0.1490 nd         1 TR4      -0.527800
      5 N05         -0.4350    -0.1420    -0.0400 na         1 TR4       0.128300
      6 C06          0.2080    -1.3140     0.1180 cd         1 TR4       0.238300
      7 N07         -0.3980    -2.5100     0.2370 nv         1 TR4      -0.826200
      8 C08          1.5710    -1.0070     0.0890 cc         1 TR4      -0.292300
      9 C09          2.6380    -1.9030     0.2200 cg         1 TR4       0.284800
     10 N10          3.5210    -2.6410     0.3280 n1         1 TR4      -0.391800
     11 C11         -1.8270     0.0900    -0.0480 ca         1 TR4       0.005800
     12 C12         -2.3490     1.1050     0.7450 ca         1 TR4      -0.125500
     13 C13         -3.7140     1.3450     0.7300 ca         1 TR4      -0.118500
     14 C14         -4.5560     0.5690    -0.0580 ca         1 TR4      -0.123000
     15 C15         -4.0250    -0.4410    -0.8470 ca         1 TR4      -0.118500
     16 C16         -2.6580    -0.6780    -0.8560 ca         1 TR4      -0.125500
     17 H01          3.2880     3.6560    -0.4490 h1         1 TR4       0.070033
     18 H01A         1.7910     3.0970    -1.2180 h1         1 TR4       0.070033
     19 H01B         1.8710     3.2880     0.5520 h1         1 TR4       0.070033
     20 HN07        -1.3530    -2.5310     0.5610 hn         1 TR4       0.429300
     21 HN0A         0.1630    -3.2650     0.5970 hn         1 TR4       0.429300
     22 H12         -1.6920     1.6990     1.3650 ha         1 TR4       0.153000
     23 H13         -4.1230     2.1370     1.3430 ha         1 TR4       0.139000
     24 H14         -5.6210     0.7570    -0.0610 ha         1 TR4       0.138000
     25 H15         -4.6720    -1.0390    -1.4750 ha         1 TR4       0.139000
     26 H16         -2.2450    -1.4430    -1.5010 ha         1 TR4       0.153000
@<TRIPOS>BOND
     1     1     2 1   
     2     1    17 1   
     3     1    18 1   
     4     1    19 1   
     5     2     3 1   
     6     3     4 2   
     7     3     8 1   
     8     4     5 1   
     9     5     6 1   
    10     5    11 1   
    11     6     7 1   
    12     6     8 2   
    13     7    20 1   
    14     7    21 1   
    15     8     9 1   
    16     9    10 3   
    17    11    12 ar  
    18    11    16 ar  
    19    12    13 ar  
    20    12    22 1   
    21    13    14 ar  
    22    13    23 1   
    23    14    15 ar  
    24    14    24 1   
    25    15    16 ar  
    26    15    25 1   
    27    16    26 1   
@<TRIPOS>SUBSTRUCTURE
     1 TR4         1 TEMP              0 ****  ****    0 ROOT
