@<TRIPOS>MOLECULE
TR4
   26    27     1     0     0
SMALL
No Charge or Current Charge


@<TRIPOS>ATOM
      1 C01          2.7400     2.9080    -0.3150 c3         1 TR4       0.019900
      2 S02          3.0520     1.2070    -0.9710 ss         1 TR4      -0.311300
      3 C03          1.5600     0.3740    -0.5590 cc         1 TR4       0.427300
      4 N04          0.4140     0.9920    -0.7660 nd         1 TR4      -0.527800
      5 N05         -0.4530     0.0250    -0.2890 na         1 TR4       0.179000
      6 C06          0.1640    -1.1380     0.2220 cd         1 TR4       0.326000
      7 N07         -0.4870    -2.2210     0.7730 nv         1 TR4      -1.075000
      8 C08          1.4840    -0.8980     0.0400 cc         1 TR4      -0.227000
      9 C09          2.5940    -1.7110     0.3690 cg         1 TR4       0.374000
     10 N10          3.4920    -2.3990     0.6540 n1         1 TR4      -0.481000
     11 C11         -1.8430     0.1230    -0.2070 ca         1 TR4       0.005800
     12 C12         -2.4380     0.8680     0.8300 ca         1 TR4      -0.107500
     13 C13         -3.8380     0.9700     0.9130 ca         1 TR4      -0.100500
     14 C14         -4.6480     0.3310    -0.0420 ca         1 TR4      -0.105000
     15 C15         -4.0590    -0.4080    -1.0820 ca         1 TR4      -0.100500
     16 C16         -2.6590    -0.5110    -1.1660 ca         1 TR4      -0.107500
     17 H01          3.6280     3.5330    -0.4720 h1         1 TR4       0.070033
     18 H01A         1.8870     3.3610    -0.8360 h1         1 TR4       0.070033
     19 H01B         2.5210     2.8580     0.7590 h1         1 TR4       0.070033
     20 HN07        -1.4900    -2.1720     0.9530 hn         1 TR4       0.484500
     21 HN0A         0.0400    -2.9490     1.2530 hn         1 TR4       0.484500
     22 H12         -1.8150     1.3660     1.5700 ha         1 TR4       0.135000
     23 H13         -4.2950     1.5450     1.7160 ha         1 TR4       0.121000
     24 H14         -5.7310     0.4110     0.0220 ha         1 TR4       0.120000
     25 H15         -4.6860    -0.9010    -1.8220 ha         1 TR4       0.121000
     26 H16         -2.2070    -1.0840    -1.9730 ha         1 TR4       0.135000
@<TRIPOS>BOND
     1     1     2 1   
     2     1    17 1   
     3     1    18 1   
     4     1    19 1   
     5     2     3 1   
     6     3     4 2   
     7     3     8 1   
     8     4     5 1   
     9     5     6 1   
    10     5    11 1   
    11     6     7 1   
    12     6     8 2   
    13     7    20 1   
    14     7    21 1   
    15     8     9 1   
    16     9    10 3   
    17    11    12 ar  
    18    11    16 ar  
    19    12    13 ar  
    20    12    22 1   
    21    13    14 ar  
    22    13    23 1   
    23    14    15 ar  
    24    14    24 1   
    25    15    16 ar  
    26    15    25 1   
    27    16    26 1   
@<TRIPOS>SUBSTRUCTURE
     1 TR4         1 TEMP              0 ****  ****    0 ROOT
