@<TRIPOS>MOLECULE
TR6
   44    48     1     0     0
SMALL
abcg2


@<TRIPOS>ATOM
      1 C01          1.0980    -2.6260    -1.2750 ca         1 TR6      -0.053000
      2 C02          0.5260    -3.8880    -1.3370 ca         1 TR6      -0.172000
      3 C03         -0.2530    -4.3050    -0.2760 ca         1 TR6       0.187000
      4 F04         -0.8170    -5.5170    -0.3190 f          1 TR6      -0.184000
      5 C05         -0.4740    -3.5210     0.8410 ca         1 TR6      -0.211000
      6 C06          0.1240    -2.2780     0.8740 ca         1 TR6       0.221000
      7 F07         -0.0500    -1.5050     1.9440 f          1 TR6      -0.155000
      8 C08          0.9060    -1.8110    -0.1720 ca         1 TR6       0.246000
      9 N09          1.5130    -0.5310    -0.0970 na         1 TR6      -0.648900
     10 C10          0.7410     0.6080    -0.1840 ca         1 TR6       0.653900
     11 N11         -0.5610     0.4340    -0.3280 nb         1 TR6      -0.826000
     12 C12         -1.3790     1.4760    -0.4140 ca         1 TR6       0.658900
     13 N13         -2.6920     1.2030    -0.5130 nh         1 TR6      -0.802300
     14 C14         -3.1340    -0.1890    -0.5930 c5         1 TR6       0.257300
     15 C15         -4.6350    -0.1080    -0.5400 cx         1 TR6      -0.132200
     16 C16         -5.2310     0.5960     0.6390 cx         1 TR6       0.105500
     17 N17         -6.5810     0.2580     0.9720 n8         1 TR6      -0.990200
     18 C18         -5.0270     1.3330    -0.6470 cx         1 TR6      -0.132200
     19 C19         -3.7710     2.1570    -0.7690 c5         1 TR6       0.257300
     20 C20         -0.8140     2.7840    -0.3890 ca         1 TR6      -0.023000
     21 C21          0.5250     2.9590    -0.2500 ca         1 TR6      -0.003000
     22 C22          1.3750     1.8460    -0.1320 ca         1 TR6      -0.281600
     23 C23          2.8240     2.0000     0.0200 c          1 TR6       0.601900
     24 C24          3.5540     0.7410     0.0940 cc         1 TR6      -0.281400
     25 C25          2.8590    -0.4260     0.0340 cd         1 TR6       0.012000
     26 C26          5.0670     0.6300     0.2450 c          1 TR6       0.726200
     27 O27          5.7160     1.6850     0.3260 o          1 TR6      -0.707500
     28 O28          5.5300    -0.5300     0.2780 o          1 TR6      -0.707500
     29 O29          3.3190     3.1230     0.0740 o          1 TR6      -0.536100
     30 F30         -1.6030     3.8650    -0.5120 f          1 TR6      -0.196000
     31 H011         1.7010    -2.2690    -2.1000 ha         1 TR6       0.140000
     32 H021         0.6790    -4.5270    -2.1950 ha         1 TR6       0.132000
     33 H051        -1.0810    -3.8690     1.6670 ha         1 TR6       0.141000
     34 H141        -2.7980    -0.6560    -1.5250 h1         1 TR6       0.060450
     35 H142        -2.7080    -0.7670     0.2290 h1         1 TR6       0.060450
     36 H151        -5.2110    -0.8850    -1.0260 hc         1 TR6       0.102200
     37 H161        -4.5410     0.8420     1.4510 h1         1 TR6       0.071700
     38 H171        -6.5930    -0.5310     1.6050 hn         1 TR6       0.402000
     39 H172        -7.0200     1.0270     1.4630 hn         1 TR6       0.402000
     40 H181        -5.8970     1.6430    -1.2120 hc         1 TR6       0.102200
     41 H191        -3.7570     2.9730    -0.0470 h1         1 TR6       0.060450
     42 H192        -3.6970     2.5860    -1.7730 h1         1 TR6       0.060450
     43 H211         0.9360     3.9600    -0.2320 ha         1 TR6       0.150000
     44 H251         3.3900    -1.3650     0.0970 h4         1 TR6       0.232000
@<TRIPOS>BOND
     1     1     2 ar  
     2     1     8 ar  
     3     1    31 1   
     4     2     3 ar  
     5     2    32 1   
     6     3     4 1   
     7     3     5 ar  
     8     5     6 ar  
     9     5    33 1   
    10     6     7 1   
    11     6     8 ar  
    12     8     9 1   
    13     9    10 1   
    14     9    25 1   
    15    10    11 ar  
    16    10    22 ar  
    17    11    12 ar  
    18    12    13 1   
    19    12    20 ar  
    20    13    14 1   
    21    13    19 1   
    22    14    15 1   
    23    14    34 1   
    24    14    35 1   
    25    15    16 1   
    26    15    18 1   
    27    15    36 1   
    28    16    17 1   
    29    16    18 1   
    30    16    37 1   
    31    17    38 1   
    32    17    39 1   
    33    18    19 1   
    34    18    40 1   
    35    19    41 1   
    36    19    42 1   
    37    20    21 ar  
    38    20    30 1   
    39    21    22 ar  
    40    21    43 1   
    41    22    23 1   
    42    23    24 1   
    43    23    29 2   
    44    24    25 2   
    45    24    26 1   
    46    25    44 1   
    47    26    27 1   
    48    26    28 1   
@<TRIPOS>SUBSTRUCTURE
     1 TR6         1 TEMP              0 ****  ****    0 ROOT
