@<TRIPOS>MOLECULE
TR6
   44    48     1     0     0
SMALL
No Charge or Current Charge


@<TRIPOS>ATOM
      1 C01          0.9980    -2.6270    -1.4490 ca         1 TR6      -0.053000
      2 C02          0.4370    -3.9190    -1.4480 ca         1 TR6      -0.172000
      3 C03         -0.1210    -4.4390    -0.2700 ca         1 TR6       0.187000
      4 F04         -0.6580    -5.6780    -0.2720 f          1 TR6      -0.184000
      5 C05         -0.1250    -3.6820     0.9090 ca         1 TR6      -0.211000
      6 C06          0.4340    -2.3930     0.9090 ca         1 TR6       0.221000
      7 F07          0.4260    -1.6800     2.0620 f          1 TR6      -0.155000
      8 C08          1.0030    -1.8510    -0.2740 ca         1 TR6       0.246000
      9 N09          1.5570    -0.5640    -0.3140 na         1 TR6      -0.648900
     10 C10          0.7740     0.5840    -0.3230 ca         1 TR6       0.653900
     11 N11         -0.5590     0.4520    -0.4090 nb         1 TR6      -0.826000
     12 C12         -1.3420     1.5390    -0.4910 ca         1 TR6       0.658900
     13 N13         -2.7220     1.2180    -0.5600 nh         1 TR6      -0.802300
     14 C14         -3.2240    -0.1950    -0.5700 c5         1 TR6       0.257300
     15 C15         -4.7460    -0.0370    -0.6180 cx         1 TR6      -0.132200
     16 C16         -5.3340     0.6330     0.6020 cx         1 TR6       0.105500
     17 N17         -6.7030     0.3210     0.9610 n8         1 TR6      -0.990200
     18 C18         -5.0900     1.4200    -0.6650 cx         1 TR6      -0.132200
     19 C19         -3.8010     2.2470    -0.6490 c5         1 TR6       0.257300
     20 C20         -0.8050     2.8540    -0.5100 ca         1 TR6      -0.023000
     21 C21          0.5810     3.0010    -0.4310 ca         1 TR6      -0.003000
     22 C22          1.3730     1.8420    -0.3300 ca         1 TR6      -0.281600
     23 C23          2.8420     1.9360    -0.2100 c          1 TR6       0.601900
     24 C24          3.5180     0.6920     0.1930 cc         1 TR6      -0.281400
     25 C25          2.8710    -0.5360     0.1940 cd         1 TR6       0.012000
     26 C26          4.9510     0.7130     0.5930 c          1 TR6       0.726200
     27 O27          5.5710     1.7610     0.6540 o          1 TR6      -0.707500
     28 O28          5.4810    -0.3500     0.8820 o          1 TR6      -0.707500
     29 O29          3.3930     3.0120    -0.4090 o          1 TR6      -0.536100
     30 F30         -1.5690     3.9720    -0.6000 f          1 TR6      -0.196000
     31 H011         1.4270    -2.2220    -2.3610 ha         1 TR6       0.140000
     32 H021         0.4350    -4.5150    -2.3570 ha         1 TR6       0.132000
     33 H051        -0.5570    -4.0890     1.8180 ha         1 TR6       0.141000
     34 H141        -2.8510    -0.7370    -1.4500 h1         1 TR6       0.060450
     35 H142        -2.9010    -0.7480     0.3230 h1         1 TR6       0.060450
     36 H151        -5.3570    -0.7500    -1.1650 hc         1 TR6       0.102200
     37 H161        -4.6880     0.8120     1.4660 h1         1 TR6       0.071700
     38 H171        -6.7180    -0.4910     1.5910 hn         1 TR6       0.402000
     39 H172        -7.0880     1.0760     1.5430 hn         1 TR6       0.402000
     40 H181        -5.9480     1.7480    -1.2460 hc         1 TR6       0.102200
     41 H191        -3.7760     2.9370     0.2060 h1         1 TR6       0.060450
     42 H192        -3.7020     2.8430    -1.5670 h1         1 TR6       0.060450
     43 H211         1.0230     3.9960    -0.4360 ha         1 TR6       0.150000
     44 H251         3.3470    -1.4790     0.4720 h4         1 TR6       0.232000
@<TRIPOS>BOND
     1     1     2 ar  
     2     1     8 ar  
     3     1    31 1   
     4     2     3 ar  
     5     2    32 1   
     6     3     4 1   
     7     3     5 ar  
     8     5     6 ar  
     9     5    33 1   
    10     6     7 1   
    11     6     8 ar  
    12     8     9 1   
    13     9    10 1   
    14     9    25 1   
    15    10    11 ar  
    16    10    22 ar  
    17    11    12 ar  
    18    12    13 1   
    19    12    20 ar  
    20    13    14 1   
    21    13    19 1   
    22    14    15 1   
    23    14    34 1   
    24    14    35 1   
    25    15    16 1   
    26    15    18 1   
    27    15    36 1   
    28    16    17 1   
    29    16    18 1   
    30    16    37 1   
    31    17    38 1   
    32    17    39 1   
    33    18    19 1   
    34    18    40 1   
    35    19    41 1   
    36    19    42 1   
    37    20    21 ar  
    38    20    30 1   
    39    21    22 ar  
    40    21    43 1   
    41    22    23 1   
    42    23    24 1   
    43    23    29 2   
    44    24    25 2   
    45    24    26 1   
    46    25    44 1   
    47    26    27 1   
    48    26    28 1   
@<TRIPOS>SUBSTRUCTURE
     1 TR6         1 TEMP              0 ****  ****    0 ROOT
