@<TRIPOS>MOLECULE
TR7
   30    31     1     0     0
SMALL
abcg2


@<TRIPOS>ATOM
      1 N            1.0270     1.1830     1.3300 n8         1 TR7      -0.987200
      2 CA           1.6570     0.0670     0.6630 c3         1 TR7       0.112500
      3 C            3.0600     0.4640     0.2480 c          1 TR7       0.591100
      4 OXT          3.7990    -0.5960    -0.0450 os         1 TR7      -0.450100
      5 CB           0.9090    -0.4860    -0.5780 c3         1 TR7      -0.036200
      6 CG          -0.5030    -0.8590    -0.2720 cc         1 TR7      -0.157400
      7 CD1         -0.9560    -2.0890     0.1180 cd         1 TR7      -0.148100
      8 CD2         -1.6560    -0.0050    -0.2980 ca         1 TR7      -0.101800
      9 NE1         -2.3040    -2.0500     0.3340 na         1 TR7      -0.220700
     10 CE2         -2.7650    -0.7910     0.0880 ca         1 TR7      -0.046200
     11 CE3         -1.8600     1.3420    -0.6200 ca         1 TR7      -0.070000
     12 CZ2         -4.0550    -0.2680     0.1660 ca         1 TR7      -0.126000
     13 CZ3         -3.1360     1.8640    -0.5470 ca         1 TR7      -0.135000
     14 CH2         -4.2240     1.0650    -0.1550 ca         1 TR7      -0.090000
     15 O            3.4540     1.5990     0.1540 o          1 TR7      -0.473000
     16 CAJ          5.1250    -0.3660    -0.5240 c3         1 TR7       0.152900
     17 HN1          0.8880     1.9500     0.6830 hn         1 TR7       0.412000
     18 HN2          0.1070     0.9030     1.6450 hn         1 TR7       0.412000
     19 HA           1.7410    -0.7520     1.3840 h1         1 TR7       0.083700
     20 HB1C         0.9320     0.2670    -1.3730 hc         1 TR7       0.057700
     21 HB2C         1.4450    -1.3580    -0.9590 hc         1 TR7       0.057700
     22 HAJ1         5.5380    -1.3470    -0.7420 h1         1 TR7       0.047700
     23 HAJ2         5.1230     0.2350    -1.4320 h1         1 TR7       0.047700
     24 HAJ3         5.7390     0.1230     0.2310 h1         1 TR7       0.047700
     25 HD1         -0.4060    -3.0080     0.2540 h4         1 TR7       0.214000
     26 HE1         -2.8620    -2.8340     0.6260 hn         1 TR7       0.352000
     27 HE3         -1.0290     1.9690    -0.9220 ha         1 TR7       0.113000
     28 HZ2         -4.8960    -0.8820     0.4650 ha         1 TR7       0.114000
     29 HZ3         -3.3060     2.9040    -0.7930 ha         1 TR7       0.113000
     30 HH2         -5.2130     1.5020    -0.1070 ha         1 TR7       0.112000
@<TRIPOS>BOND
     1     1     2 1   
     2     1    17 1   
     3     1    18 1   
     4     2     3 1   
     5     2     5 1   
     6     2    19 1   
     7     3     4 1   
     8     3    15 2   
     9     4    16 1   
    10     5     6 1   
    11     5    20 1   
    12     5    21 1   
    13     6     7 2   
    14     6     8 1   
    15     7     9 1   
    16     7    25 1   
    17     8    10 ar  
    18     8    11 ar  
    19     9    10 1   
    20     9    26 1   
    21    10    12 ar  
    22    11    13 ar  
    23    11    27 1   
    24    12    14 ar  
    25    12    28 1   
    26    13    14 ar  
    27    13    29 1   
    28    14    30 1   
    29    16    22 1   
    30    16    23 1   
    31    16    24 1   
@<TRIPOS>SUBSTRUCTURE
     1 TR7         1 TEMP              0 ****  ****    0 ROOT
