@<TRIPOS>MOLECULE
TR7
   30    31     1     0     0
SMALL
No Charge or Current Charge


@<TRIPOS>ATOM
      1 N            0.9250     1.2090     1.3300 n8         1 TR7      -0.987200
      2 CA           1.6760     0.1330     0.5910 c3         1 TR7       0.112500
      3 C            3.1520     0.4750     0.1790 c          1 TR7       0.591100
      4 OXT          3.8950    -0.6580    -0.0490 os         1 TR7      -0.450100
      5 CB           0.8600    -0.3590    -0.6330 c3         1 TR7      -0.036200
      6 CG          -0.5400    -0.8090    -0.2900 cc         1 TR7      -0.157400
      7 CD1         -0.9370    -2.0850     0.1000 cd         1 TR7      -0.148100
      8 CD2         -1.7330    -0.0070    -0.2820 ca         1 TR7      -0.101800
      9 NE1         -2.3300    -2.0930     0.3570 na         1 TR7      -0.220700
     10 CE2         -2.7700    -0.8060     0.1100 ca         1 TR7      -0.046200
     11 CE3         -1.9250     1.3450    -0.6080 ca         1 TR7      -0.070000
     12 CZ2         -4.0770    -0.3120     0.2160 ca         1 TR7      -0.126000
     13 CZ3         -3.2300     1.8700    -0.5090 ca         1 TR7      -0.135000
     14 CH2         -4.3040     1.0460    -0.0970 ca         1 TR7      -0.090000
     15 O            3.5920     1.6160     0.0790 o          1 TR7      -0.473000
     16 CAJ          5.2730    -0.4990    -0.4350 c3         1 TR7       0.152900
     17 HN1          0.9410     2.0700     0.7710 hn         1 TR7       0.412000
     18 HN2         -0.0690     0.9460     1.3300 hn         1 TR7       0.412000
     19 HA           1.7590    -0.7250     1.2730 h1         1 TR7       0.083700
     20 HB1C         0.8230     0.4370    -1.3870 hc         1 TR7       0.057700
     21 HB2C         1.3970    -1.1920    -1.1040 hc         1 TR7       0.057700
     22 HAJ1         5.7430    -1.4790    -0.5840 h1         1 TR7       0.047700
     23 HAJ2         5.3540     0.0630    -1.3750 h1         1 TR7       0.047700
     24 HAJ3         5.8380     0.0350     0.3390 h1         1 TR7       0.047700
     25 HD1         -0.3320    -2.9800     0.2210 h4         1 TR7       0.214000
     26 HE1         -2.8930    -2.8830     0.6590 hn         1 TR7       0.352000
     27 HE3         -1.0960     1.9710    -0.9310 ha         1 TR7       0.113000
     28 HZ2         -4.8970    -0.9550     0.5290 ha         1 TR7       0.114000
     29 HZ3         -3.4130     2.9150    -0.7530 ha         1 TR7       0.113000
     30 HH2         -5.3080     1.4580    -0.0250 ha         1 TR7       0.112000
@<TRIPOS>BOND
     1     1     2 1   
     2     1    17 1   
     3     1    18 1   
     4     2     3 1   
     5     2     5 1   
     6     2    19 1   
     7     3     4 1   
     8     3    15 2   
     9     4    16 1   
    10     5     6 1   
    11     5    20 1   
    12     5    21 1   
    13     6     7 2   
    14     6     8 1   
    15     7     9 1   
    16     7    25 1   
    17     8    10 ar  
    18     8    11 ar  
    19     9    10 1   
    20     9    26 1   
    21    10    12 ar  
    22    11    13 ar  
    23    11    27 1   
    24    12    14 ar  
    25    12    28 1   
    26    13    14 ar  
    27    13    29 1   
    28    14    30 1   
    29    16    22 1   
    30    16    23 1   
    31    16    24 1   
@<TRIPOS>SUBSTRUCTURE
     1 TR7         1 TEMP              0 ****  ****    0 ROOT
