@<TRIPOS>MOLECULE
TR9
   19    19     1     0     0
SMALL
No Charge or Current Charge


@<TRIPOS>ATOM
      1 C1          -0.4010     1.7140     0.3480 c6         1 TR9      -0.167400
      2 C2          -1.3840     0.7970    -0.4080 c6         1 TR9       0.088300
      3 C3          -1.1630    -0.7150    -0.0670 c          1 TR9       0.540300
      4 C4           0.2670    -1.1580     0.1240 ce         1 TR9      -0.212400
      5 C5           1.2900    -0.2470     0.2150 cf         1 TR9       0.045900
      6 C6           1.0480     1.2480     0.2370 c          1 TR9       0.542300
      7 C7           0.5280    -2.6660     0.0170 c3         1 TR9      -0.035900
      8 O1           2.5780    -0.6690     0.2710 oh         1 TR9      -0.508100
      9 O2          -2.7390     1.2190    -0.1260 oh         1 TR9      -0.642000
     10 O3          -2.1000    -1.5070    -0.0940 o          1 TR9      -0.515100
     11 O4           1.9690     2.0530     0.1650 o          1 TR9      -0.511100
     12 H1          -0.4840     2.7710     0.0650 hc         1 TR9       0.097200
     13 H2          -1.1770     0.8860    -1.4850 h1         1 TR9       0.055700
     14 H3          -0.2230    -3.1770    -0.5960 hc         1 TR9       0.053700
     15 H4           1.4980    -2.8900    -0.4430 hc         1 TR9       0.053700
     16 H5           3.1520     0.1310     0.3030 ho         1 TR9       0.492000
     17 H6          -3.3280     0.4680    -0.3730 ho         1 TR9       0.472000
     18 H7           0.5190    -3.1360     1.0070 hc         1 TR9       0.053700
     19 H8          -0.6540     1.6290     1.4130 hc         1 TR9       0.097200
@<TRIPOS>BOND
     1     1     2 1   
     2     1     6 1   
     3     1    12 1   
     4     1    19 1   
     5     2     3 1   
     6     2     9 1   
     7     2    13 1   
     8     3     4 1   
     9     3    10 2   
    10     4     5 2   
    11     4     7 1   
    12     5     6 1   
    13     5     8 1   
    14     6    11 2   
    15     7    14 1   
    16     7    15 1   
    17     7    18 1   
    18     8    16 1   
    19     9    17 1   
@<TRIPOS>SUBSTRUCTURE
     1 TR9         1 TEMP              0 ****  ****    0 ROOT
