@<TRIPOS>MOLECULE
TR9
   19    19     1     0     0
SMALL
bcc


@<TRIPOS>ATOM
      1 C1          -0.3970     1.6660     0.3730 c6         1 TR9      -0.167400
      2 C2          -1.3730     0.7630    -0.3640 c6         1 TR9       0.065100
      3 C3          -1.1180    -0.6960    -0.0230 c          1 TR9       0.540300
      4 C4           0.2730    -1.1570     0.0300 ce         1 TR9      -0.212400
      5 C5           1.2690    -0.2460     0.0800 cf         1 TR9       0.045900
      6 C6           1.0160     1.2190     0.1910 c          1 TR9       0.542300
      7 C7           0.5110    -2.6320     0.0260 c3         1 TR9      -0.035900
      8 O1           2.5470    -0.5980     0.0670 oh         1 TR9      -0.469100
      9 O2          -2.6710     1.1610    -0.0520 oh         1 TR9      -0.579800
     10 O3          -2.0500    -1.4610     0.1180 o          1 TR9      -0.515100
     11 O4           1.9690     1.9670     0.1870 o          1 TR9      -0.511100
     12 H1          -0.4970     2.7040     0.0560 hc         1 TR9       0.097200
     13 H2          -1.1720     0.8470    -1.4450 h1         1 TR9       0.055700
     14 H3           0.1820    -3.0790    -0.9140 hc         1 TR9       0.053700
     15 H4           1.5600    -2.8810     0.1670 hc         1 TR9       0.053700
     16 H5           3.0940     0.2020     0.1330 ho         1 TR9       0.453000
     17 H6          -3.2770     0.4610    -0.3240 ho         1 TR9       0.433000
     18 H7          -0.0590    -3.1120     0.8220 hc         1 TR9       0.053700
     19 H8          -0.6110     1.6250     1.4480 hc         1 TR9       0.097200
@<TRIPOS>BOND
     1     1     2 1   
     2     1     6 1   
     3     1    12 1   
     4     1    19 1   
     5     2     3 1   
     6     2     9 1   
     7     2    13 1   
     8     3     4 1   
     9     3    10 2   
    10     4     5 2   
    11     4     7 1   
    12     5     6 1   
    13     5     8 1   
    14     6    11 2   
    15     7    14 1   
    16     7    15 1   
    17     7    18 1   
    18     8    16 1   
    19     9    17 1   
@<TRIPOS>SUBSTRUCTURE
     1 TR9         1 TEMP              0 ****  ****    0 ROOT
