@<TRIPOS>MOLECULE
TRA
   15    14     1     0     0
SMALL
No Charge or Current Charge


@<TRIPOS>ATOM
      1 CA           0.5300    -1.3910    -0.0260 ce         1 TRA      -0.345200
      2 CB          -0.4190    -0.4530     0.3600 cf         1 TRA      -0.103400
      3 CG          -0.0810     0.9660     0.8810 c3         1 TRA      -0.148200
      4 CAC          2.0280    -1.3600    -0.0780 c          1 TRA       0.706200
      5 CBC         -1.9080    -0.8320     0.3320 c          1 TRA       0.712200
      6 CGC         -0.1840     2.0220    -0.2490 c          1 TRA       0.744000
      7 OA1          2.6610    -0.3920     0.3010 o          1 TRA      -0.799500
      8 OA2          2.5740    -2.3660    -0.4970 o          1 TRA      -0.799500
      9 OB1         -2.2360    -1.9270    -0.1070 o          1 TRA      -0.784500
     10 OB2         -2.7460    -0.0580     0.7710 o          1 TRA      -0.784500
     11 OG1          0.7900     2.2220    -0.9620 o          1 TRA      -0.794000
     12 OG2         -1.2610     2.5630    -0.4550 o          1 TRA      -0.794000
     13 HA           0.1520    -2.3530    -0.3630 ha         1 TRA       0.140000
     14 HG1          0.9320     0.9600     1.2870 hc         1 TRA       0.024700
     15 HG2         -0.8000     1.2120     1.6700 hc         1 TRA       0.024700
@<TRIPOS>BOND
     1     1     2 2   
     2     1     4 1   
     3     1    13 1   
     4     2     3 1   
     5     2     5 1   
     6     3     6 1   
     7     3    14 1   
     8     3    15 1   
     9     4     7 1   
    10     4     8 1   
    11     5     9 1   
    12     5    10 1   
    13     6    11 1   
    14     6    12 1   
@<TRIPOS>SUBSTRUCTURE
     1 TRA         1 TEMP              0 ****  ****    0 ROOT
