@<TRIPOS>MOLECULE
TRA
   15    14     1     0     0
SMALL
abcg2


@<TRIPOS>ATOM
      1 CA           0.5940    -1.4160    -0.0000 ce         1 TRA      -0.345200
      2 CB          -0.3140    -0.4550     0.2150 cf         1 TRA      -0.103400
      3 CG          -0.0400     0.8980     0.7860 c3         1 TRA      -0.148200
      4 CAC          2.0800    -1.4320     0.2640 c          1 TRA       0.706200
      5 CBC         -1.7860    -0.7540    -0.0630 c          1 TRA       0.712200
      6 CGC         -0.5130     2.0380    -0.1290 c          1 TRA       0.744000
      7 OA1          2.7010    -0.3630     0.4500 o          1 TRA      -0.799500
      8 OA2          2.5930    -2.5750     0.2680 o          1 TRA      -0.799500
      9 OB1         -2.0650    -1.7100    -0.8180 o          1 TRA      -0.784500
     10 OB2         -2.6120    -0.0170     0.5150 o          1 TRA      -0.784500
     11 OG1         -0.6020     1.7920    -1.3490 o          1 TRA      -0.794000
     12 OG2         -0.7240     3.1440     0.4140 o          1 TRA      -0.794000
     13 HA           0.2130    -2.3530    -0.3970 ha         1 TRA       0.140000
     14 HG1          1.0320     1.0160     0.9490 hc         1 TRA       0.024700
     15 HG2         -0.5250     0.9990     1.7600 hc         1 TRA       0.024700
@<TRIPOS>BOND
     1     1     2 2   
     2     1     4 1   
     3     1    13 1   
     4     2     3 1   
     5     2     5 1   
     6     3     6 1   
     7     3    14 1   
     8     3    15 1   
     9     4     7 1   
    10     4     8 1   
    11     5     9 1   
    12     5    10 1   
    13     6    11 1   
    14     6    12 1   
@<TRIPOS>SUBSTRUCTURE
     1 TRA         1 TEMP              0 ****  ****    0 ROOT
