@<TRIPOS>MOLECULE
TRC
   17    16     1     0     0
SMALL
No Charge or Current Charge


@<TRIPOS>ATOM
      1 C1           1.3240     0.0910     1.8160 c          1 TRC       0.715500
      2 O1           1.9510     1.1410     1.8100 o          1 TRC      -0.795000
      3 O2           0.9840    -0.4720     2.8450 o          1 TRC      -0.795000
      4 C2           0.9390    -0.5430     0.4580 c3         1 TRC      -0.160400
      5 C3          -0.4090     0.0460    -0.0730 c3         1 TRC      -0.136700
      6 C4          -0.7400    -0.3910    -1.5410 c3         1 TRC      -0.160400
      7 C5           0.1530     0.3210    -2.5850 c          1 TRC       0.715500
      8 O3          -0.1860     1.4280    -2.9790 o          1 TRC      -0.795000
      9 O4           1.1610    -0.2440    -2.9820 o          1 TRC      -0.795000
     10 C6          -1.5970    -0.2630     0.8840 c          1 TRC       0.740000
     11 O5          -1.9620    -1.4230     1.0280 o          1 TRC      -0.800000
     12 O6          -2.1730     0.6780     1.4140 o          1 TRC      -0.800000
     13 H21          1.6930    -0.2760    -0.2910 hc         1 TRC       0.004200
     14 H22          0.7910    -1.6260     0.5590 hc         1 TRC       0.004200
     15 H3          -0.2930     1.1370    -0.0850 hc         1 TRC       0.049700
     16 H41         -0.6040    -1.4790    -1.5850 hc         1 TRC       0.004200
     17 H42         -1.7810    -0.0800    -1.6920 hc         1 TRC       0.004200
@<TRIPOS>BOND
     1     1     2 1   
     2     1     3 1   
     3     1     4 1   
     4     4     5 1   
     5     4    13 1   
     6     4    14 1   
     7     5     6 1   
     8     5    10 1   
     9     5    15 1   
    10     6     7 1   
    11     6    16 1   
    12     6    17 1   
    13     7     8 1   
    14     7     9 1   
    15    10    11 1   
    16    10    12 1   
@<TRIPOS>SUBSTRUCTURE
     1 TRC         1 TEMP              0 ****  ****    0 ROOT
