@<TRIPOS>MOLECULE
TRC
   17    16     1     0     0
SMALL
abcg2


@<TRIPOS>ATOM
      1 C1           1.2920     0.0380     1.8650 c          1 TRC       0.715500
      2 O1           0.7140     1.0300     2.3530 o          1 TRC      -0.795000
      3 O2           2.2280    -0.5970     2.4020 o          1 TRC      -0.795000
      4 C2           0.8580    -0.4390     0.4710 c3         1 TRC      -0.160400
      5 C3          -0.4170     0.1840    -0.0650 c3         1 TRC      -0.136700
      6 C4          -0.7370    -0.3160    -1.4770 c3         1 TRC      -0.160400
      7 C5           0.2830     0.0530    -2.5670 c          1 TRC       0.715500
      8 O3           0.8490     1.1630    -2.4770 o          1 TRC      -0.795000
      9 O4           0.4400    -0.7710    -3.4950 o          1 TRC      -0.795000
     10 C6          -1.6330    -0.0960     0.8290 c          1 TRC       0.740000
     11 O5          -1.6820    -1.1990     1.4160 o          1 TRC      -0.800000
     12 O6          -2.5310     0.7760     0.8570 o          1 TRC      -0.800000
     13 H21          1.6840    -0.2280    -0.2180 hc         1 TRC       0.004200
     14 H22          0.7640    -1.5290     0.4870 hc         1 TRC       0.004200
     15 H3          -0.2830     1.2670    -0.1250 hc         1 TRC       0.049700
     16 H41         -0.8810    -1.4010    -1.4640 hc         1 TRC       0.004200
     17 H42         -1.7000     0.1100    -1.7890 hc         1 TRC       0.004200
@<TRIPOS>BOND
     1     1     2 1   
     2     1     3 1   
     3     1     4 1   
     4     4     5 1   
     5     4    13 1   
     6     4    14 1   
     7     5     6 1   
     8     5    10 1   
     9     5    15 1   
    10     6     7 1   
    11     6    16 1   
    12     6    17 1   
    13     7     8 1   
    14     7     9 1   
    15    10    11 1   
    16    10    12 1   
@<TRIPOS>SUBSTRUCTURE
     1 TRC         1 TEMP              0 ****  ****    0 ROOT
