@<TRIPOS>MOLECULE
TRD
   41    40     1     0     0
SMALL
abcg2


@<TRIPOS>ATOM
      1 C1          -0.3860     0.0120     7.6320 c3         1 TRD      -0.088100
      2 C2           0.4750     0.0120     6.3770 c3         1 TRD      -0.074900
      3 C3          -0.3510     0.0110     5.0960 c3         1 TRD      -0.075900
      4 C4           0.4950     0.0100     3.8290 c3         1 TRD      -0.074400
      5 C5          -0.3380     0.0060     2.5530 c3         1 TRD      -0.074400
      6 C6           0.5020     0.0100     1.2820 c3         1 TRD      -0.074400
      7 C7          -0.3360     0.0050     0.0090 c3         1 TRD      -0.074400
      8 C8           0.5000     0.0100    -1.2650 c3         1 TRD      -0.074400
      9 C9          -0.3420     0.0040    -2.5350 c3         1 TRD      -0.074400
     10 C10          0.4890     0.0090    -3.8120 c3         1 TRD      -0.074400
     11 C11         -0.3580     0.0040    -5.0780 c3         1 TRD      -0.075900
     12 C12          0.4660     0.0090    -6.3600 c3         1 TRD      -0.074900
     13 C13         -0.3980     0.0070    -7.6140 c3         1 TRD      -0.088100
     14 H11         -1.0300    -0.8690     7.6660 hc         1 TRD       0.031367
     15 H12          0.2200     0.0120     8.5390 hc         1 TRD       0.031367
     16 H13         -1.0310     0.8920     7.6660 hc         1 TRD       0.031367
     17 H21          1.1330     0.8870     6.3820 hc         1 TRD       0.036700
     18 H22          1.1350    -0.8620     6.3830 hc         1 TRD       0.036700
     19 H31         -1.0100    -0.8660     5.0930 hc         1 TRD       0.036700
     20 H32         -1.0120     0.8850     5.0920 hc         1 TRD       0.036700
     21 H41          1.1530     0.8870     3.8310 hc         1 TRD       0.036700
     22 H42          1.1550    -0.8640     3.8340 hc         1 TRD       0.036700
     23 H51         -0.9940    -0.8720     2.5510 hc         1 TRD       0.036700
     24 H52         -1.0020     0.8780     2.5510 hc         1 TRD       0.036700
     25 H61          1.1570     0.8890     1.2820 hc         1 TRD       0.036700
     26 H62          1.1670    -0.8620     1.2830 hc         1 TRD       0.036700
     27 H71         -0.9900    -0.8740     0.0100 hc         1 TRD       0.036700
     28 H72         -1.0000     0.8770     0.0100 hc         1 TRD       0.036700
     29 H81          1.1540     0.8890    -1.2670 hc         1 TRD       0.036700
     30 H82          1.1650    -0.8610    -1.2660 hc         1 TRD       0.036700
     31 H91         -0.9970    -0.8750    -2.5310 hc         1 TRD       0.036700
     32 H92         -1.0070     0.8760    -2.5320 hc         1 TRD       0.036700
     33 H101         1.1430     0.8890    -3.8160 hc         1 TRD       0.036700
     34 H102         1.1540    -0.8620    -3.8160 hc         1 TRD       0.036700
     35 H111        -1.0130    -0.8750    -5.0730 hc         1 TRD       0.036700
     36 H112        -1.0240     0.8750    -5.0730 hc         1 TRD       0.036700
     37 H121         1.1210     0.8860    -6.3650 hc         1 TRD       0.036700
     38 H122         1.1280    -0.8630    -6.3670 hc         1 TRD       0.036700
     39 H131         0.2070     0.0030    -8.5220 hc         1 TRD       0.031367
     40 H132        -1.0430    -0.8730    -7.6440 hc         1 TRD       0.031367
     41 H133        -1.0410     0.8880    -7.6490 hc         1 TRD       0.031367
@<TRIPOS>BOND
     1     1     2 1   
     2     1    14 1   
     3     1    15 1   
     4     1    16 1   
     5     2     3 1   
     6     2    17 1   
     7     2    18 1   
     8     3     4 1   
     9     3    19 1   
    10     3    20 1   
    11     4     5 1   
    12     4    21 1   
    13     4    22 1   
    14     5     6 1   
    15     5    23 1   
    16     5    24 1   
    17     6     7 1   
    18     6    25 1   
    19     6    26 1   
    20     7     8 1   
    21     7    27 1   
    22     7    28 1   
    23     8     9 1   
    24     8    29 1   
    25     8    30 1   
    26     9    10 1   
    27     9    31 1   
    28     9    32 1   
    29    10    11 1   
    30    10    33 1   
    31    10    34 1   
    32    11    12 1   
    33    11    35 1   
    34    11    36 1   
    35    12    13 1   
    36    12    37 1   
    37    12    38 1   
    38    13    39 1   
    39    13    40 1   
    40    13    41 1   
@<TRIPOS>SUBSTRUCTURE
     1 TRD         1 TEMP              0 ****  ****    0 ROOT
