@<TRIPOS>MOLECULE
TRD
   41    40     1     0     0
SMALL
No Charge or Current Charge


@<TRIPOS>ATOM
      1 C1          -0.3570     0.0110     7.7350 c3         1 TRD      -0.088100
      2 C2           0.4910     0.0130     6.4490 c3         1 TRD      -0.074900
      3 C3          -0.3610     0.0090     5.1620 c3         1 TRD      -0.075900
      4 C4           0.4900     0.0110     3.8730 c3         1 TRD      -0.074400
      5 C5          -0.3630     0.0070     2.5850 c3         1 TRD      -0.074400
      6 C6           0.4880     0.0100     1.2970 c3         1 TRD      -0.074400
      7 C7          -0.3650     0.0060     0.0090 c3         1 TRD      -0.074400
      8 C8           0.4860     0.0090    -1.2800 c3         1 TRD      -0.074400
      9 C9          -0.3670     0.0060    -2.5670 c3         1 TRD      -0.074400
     10 C10          0.4840     0.0090    -3.8560 c3         1 TRD      -0.074400
     11 C11         -0.3690     0.0050    -5.1430 c3         1 TRD      -0.075900
     12 C12          0.4820     0.0090    -6.4320 c3         1 TRD      -0.074900
     13 C13         -0.3690     0.0050    -7.7170 c3         1 TRD      -0.088100
     14 H11         -0.9940    -0.8810     7.7790 hc         1 TRD       0.031367
     15 H12          0.2900     0.0130     8.6210 hc         1 TRD       0.031367
     16 H13         -1.0000     0.8980     7.7780 hc         1 TRD       0.031367
     17 H21          1.1410     0.8970     6.4530 hc         1 TRD       0.036700
     18 H22          1.1470    -0.8670     6.4540 hc         1 TRD       0.036700
     19 H31         -1.0110    -0.8750     5.1630 hc         1 TRD       0.036700
     20 H32         -1.0170     0.8890     5.1620 hc         1 TRD       0.036700
     21 H41          1.1390     0.8950     3.8720 hc         1 TRD       0.036700
     22 H42          1.1450    -0.8690     3.8730 hc         1 TRD       0.036700
     23 H51         -1.0130    -0.8770     2.5860 hc         1 TRD       0.036700
     24 H52         -1.0190     0.8870     2.5860 hc         1 TRD       0.036700
     25 H61          1.1370     0.8940     1.2960 hc         1 TRD       0.036700
     26 H62          1.1440    -0.8700     1.2970 hc         1 TRD       0.036700
     27 H71         -1.0150    -0.8780     0.0100 hc         1 TRD       0.036700
     28 H72         -1.0210     0.8860     0.0090 hc         1 TRD       0.036700
     29 H81          1.1350     0.8930    -1.2800 hc         1 TRD       0.036700
     30 H82          1.1420    -0.8700    -1.2800 hc         1 TRD       0.036700
     31 H91         -1.0170    -0.8790    -2.5660 hc         1 TRD       0.036700
     32 H92         -1.0230     0.8850    -2.5670 hc         1 TRD       0.036700
     33 H101         1.1330     0.8930    -3.8560 hc         1 TRD       0.036700
     34 H102         1.1400    -0.8710    -3.8560 hc         1 TRD       0.036700
     35 H111        -1.0190    -0.8790    -5.1430 hc         1 TRD       0.036700
     36 H112        -1.0250     0.8850    -5.1430 hc         1 TRD       0.036700
     37 H121         1.1310     0.8930    -6.4370 hc         1 TRD       0.036700
     38 H122         1.1380    -0.8710    -6.4370 hc         1 TRD       0.036700
     39 H131         0.2770     0.0080    -8.6030 hc         1 TRD       0.031367
     40 H132        -1.0050    -0.8870    -7.7590 hc         1 TRD       0.031367
     41 H133        -1.0120     0.8920    -7.7590 hc         1 TRD       0.031367
@<TRIPOS>BOND
     1     1     2 1   
     2     1    14 1   
     3     1    15 1   
     4     1    16 1   
     5     2     3 1   
     6     2    17 1   
     7     2    18 1   
     8     3     4 1   
     9     3    19 1   
    10     3    20 1   
    11     4     5 1   
    12     4    21 1   
    13     4    22 1   
    14     5     6 1   
    15     5    23 1   
    16     5    24 1   
    17     6     7 1   
    18     6    25 1   
    19     6    26 1   
    20     7     8 1   
    21     7    27 1   
    22     7    28 1   
    23     8     9 1   
    24     8    29 1   
    25     8    30 1   
    26     9    10 1   
    27     9    31 1   
    28     9    32 1   
    29    10    11 1   
    30    10    33 1   
    31    10    34 1   
    32    11    12 1   
    33    11    35 1   
    34    11    36 1   
    35    12    13 1   
    36    12    37 1   
    37    12    38 1   
    38    13    39 1   
    39    13    40 1   
    40    13    41 1   
@<TRIPOS>SUBSTRUCTURE
     1 TRD         1 TEMP              0 ****  ****    0 ROOT
