@<TRIPOS>MOLECULE
TRF
   28    29     1     0     0
SMALL
bcc


@<TRIPOS>ATOM
      1 N           17.8370    -1.8400    -2.8340 n8         1 TRF      -0.860800
      2 CA          18.6210    -1.9930    -1.6090 c3         1 TRF       0.017500
      3 CB          20.0260    -2.4320    -2.0020 c3         1 TRF       0.004800
      4 CG          20.9290    -2.7450    -0.8570 cc         1 TRF      -0.074400
      5 CD1         20.6590    -2.7280     0.4660 cd         1 TRF      -0.063400
      6 NE1         21.7900    -3.1000     1.1980 n          1 TRF      -0.268200
      7 CE2         22.8260    -3.3620     0.3060 ca         1 TRF       0.003600
      8 CZ2         24.1400    -3.7570     0.5200 ca         1 TRF      -0.126000
      9 CH2         24.9400    -3.9320    -0.6000 ca         1 TRF      -0.136000
     10 CZ3         24.4470    -3.7220    -1.8910 ca         1 TRF      -0.163000
     11 CE3         23.1350    -3.3300    -2.0940 ca         1 TRF      -0.086000
     12 CD2         22.3130    -3.1470    -0.9840 ca         1 TRF      -0.081800
     13 C           18.6440    -0.6400    -0.8480 c          1 TRF       0.928600
     14 C1          21.8100    -3.1600     2.5640 c          1 TRF       0.688900
     15 O1          22.7710    -3.4660     3.2250 o          1 TRF      -0.583100
     16 O           18.0950    -0.6200     0.2740 o          1 TRF      -0.829300
     17 OXT         19.2000     0.3130    -1.4250 o          1 TRF      -0.829300
     18 H           16.8970    -1.5440    -2.6000 hn         1 TRF       0.309300
     19 H2          17.7270    -2.7490    -3.2690 hn         1 TRF       0.309300
     20 HA          18.1940    -2.7560    -0.9420 h1         1 TRF      -0.002300
     21 HB2         19.9650    -3.3190    -2.6440 hc         1 TRF       0.045200
     22 HB3         20.4770    -1.6490    -2.6180 hc         1 TRF       0.045200
     23 HD1         19.7500    -2.4640     0.9850 h4         1 TRF       0.205000
     24 HZ2         24.5380    -3.9240     1.5100 ha         1 TRF       0.147000
     25 HH2         25.9690    -4.2370    -0.4670 ha         1 TRF       0.115000
     26 HZ3         25.1020    -3.8660    -2.7400 ha         1 TRF       0.116000
     27 HE3         22.7560    -3.1660    -3.0950 ha         1 TRF       0.135000
     28 HC1         20.8360    -2.8950     2.9990 h5         1 TRF       0.035200
@<TRIPOS>BOND
     1     1     2 1   
     2     1    18 1   
     3     1    19 1   
     4     2     3 1   
     5     2    13 1   
     6     2    20 1   
     7     3     4 1   
     8     3    21 1   
     9     3    22 1   
    10     4     5 2   
    11     4    12 1   
    12     5     6 1   
    13     5    23 1   
    14     6     7 1   
    15     6    14 1   
    16     7     8 ar  
    17     7    12 ar  
    18     8     9 ar  
    19     8    24 1   
    20     9    10 ar  
    21     9    25 1   
    22    10    11 ar  
    23    10    26 1   
    24    11    12 ar  
    25    11    27 1   
    26    13    16 1   
    27    13    17 1   
    28    14    15 2   
    29    14    28 1   
@<TRIPOS>SUBSTRUCTURE
     1 TRF         1 TEMP              0 ****  ****    0 ROOT
