@<TRIPOS>MOLECULE
TRF
   28    29     1     0     0
SMALL
No Charge or Current Charge


@<TRIPOS>ATOM
      1 N           17.6870    -1.9190    -2.8470 n8         1 TRF      -0.860800
      2 CA          18.6290    -1.8830    -1.6650 c3         1 TRF       0.017500
      3 CB          20.0030    -2.4910    -2.0570 c3         1 TRF       0.004800
      4 CG          20.9230    -2.7900    -0.8960 cc         1 TRF      -0.074400
      5 CD1         20.6540    -2.8300     0.4630 cd         1 TRF      -0.063400
      6 NE1         21.7590    -3.1670     1.2590 n          1 TRF      -0.268200
      7 CE2         22.8070    -3.3630     0.3080 ca         1 TRF       0.003600
      8 CZ2         24.1480    -3.7240     0.5230 ca         1 TRF      -0.126000
      9 CH2         24.9930    -3.8600    -0.5990 ca         1 TRF      -0.136000
     10 CZ3         24.4930    -3.6360    -1.9030 ca         1 TRF      -0.163000
     11 CE3         23.1440    -3.2750    -2.0980 ca         1 TRF      -0.086000
     12 CD2         22.3230    -3.1450    -0.9680 ca         1 TRF      -0.081800
     13 C           18.8080    -0.4810    -0.9300 c          1 TRF       0.928600
     14 C1          21.7660    -3.2770     2.6670 c          1 TRF       0.688900
     15 O1          22.7620    -3.5790     3.3210 o          1 TRF      -0.583100
     16 O           18.2750    -0.3260     0.1650 o          1 TRF      -0.829300
     17 OXT         19.4050     0.4290    -1.5010 o          1 TRF      -0.829300
     18 H           16.7490    -1.6390    -2.5420 hn         1 TRF       0.309300
     19 H2          17.5780    -2.8870    -3.1670 hn         1 TRF       0.309300
     20 HA          18.1800    -2.5650    -0.9310 h1         1 TRF      -0.002300
     21 HB2         19.8340    -3.4250    -2.6070 hc         1 TRF       0.045200
     22 HB3         20.5080    -1.8130    -2.7560 hc         1 TRF       0.045200
     23 HD1         19.7110    -2.6420     0.9710 h4         1 TRF       0.205000
     24 HZ2         24.5350    -3.8980     1.5230 ha         1 TRF       0.147000
     25 HH2         26.0350    -4.1380    -0.4600 ha         1 TRF       0.115000
     26 HZ3         25.1530    -3.7440    -2.7610 ha         1 TRF       0.116000
     27 HE3         22.7530    -3.1020    -3.0980 ha         1 TRF       0.135000
     28 HC1         20.7780    -3.0610     3.1150 h5         1 TRF       0.035200
@<TRIPOS>BOND
     1     1     2 1   
     2     1    18 1   
     3     1    19 1   
     4     2     3 1   
     5     2    13 1   
     6     2    20 1   
     7     3     4 1   
     8     3    21 1   
     9     3    22 1   
    10     4     5 2   
    11     4    12 1   
    12     5     6 1   
    13     5    23 1   
    14     6     7 1   
    15     6    14 1   
    16     7     8 ar  
    17     7    12 ar  
    18     8     9 ar  
    19     8    24 1   
    20     9    10 ar  
    21     9    25 1   
    22    10    11 ar  
    23    10    26 1   
    24    11    12 ar  
    25    11    27 1   
    26    13    16 1   
    27    13    17 1   
    28    14    15 2   
    29    14    28 1   
@<TRIPOS>SUBSTRUCTURE
     1 TRF         1 TEMP              0 ****  ****    0 ROOT
