@<TRIPOS>MOLECULE
TRH
   59    61     1     0     0
SMALL
No Charge or Current Charge


@<TRIPOS>ATOM
      1 O4P         15.5280    62.2530    50.7840 o          1 TRH      -0.849000
      2 P2          16.1840    61.6000    51.9550 p5         1 TRH       1.481800
      3 O3P         17.0980    60.4930    51.5500 o          1 TRH      -0.849000
      4 O1          17.0190    62.7110    52.7630 os         1 TRH      -0.562400
      5 C1          18.1330    62.2670    53.5430 c6         1 TRH       0.443300
      6 C2          17.7550    61.4040    54.8120 c6         1 TRH       0.142300
      7 O2          16.8630    62.0720    55.7410 oh         1 TRH      -0.693000
      8 C3          19.0760    61.0470    55.5590 c6         1 TRH       0.122300
      9 O3          18.7960    60.3330    56.7800 oh         1 TRH      -0.683000
     10 C4          19.9150    62.3240    55.8790 c6         1 TRH       0.097300
     11 O4          21.1640    61.9460    56.4980 oh         1 TRH      -0.745000
     12 C5          20.1330    63.1550    54.5700 c6         1 TRH       0.158300
     13 O5          18.8600    63.4460    53.9550 os         1 TRH      -0.461000
     14 C6          20.8230    64.5200    54.8240 c3         1 TRH      -0.084100
     15 OPP         15.1380    61.2520    53.0800 os         1 TRH      -0.734800
     16 P           14.5110    59.8070    53.0550 p5         1 TRH       1.493800
     17 O1P         13.3270    59.7560    53.9600 o          1 TRH      -0.863500
     18 O2P         15.4920    58.7520    53.4380 o          1 TRH      -0.863500
     19 O8          14.0440    59.6690    51.5190 os         1 TRH      -0.628400
     20 C11         12.8280    60.2950    51.0580 c3         1 TRH       0.215600
     21 C10         11.7690    59.2300    50.6270 c5         1 TRH       0.167300
     22 O7          12.3590    58.3100    49.6640 os         1 TRH      -0.450000
     23 C9          11.1740    58.3340    51.7760 c5         1 TRH       0.138300
     24 O6           9.7970    57.9920    51.5470 oh         1 TRH      -0.741000
     25 C8          12.0650    57.0740    51.6620 c5         1 TRH      -0.150400
     26 C7          12.1460    56.9620    50.1230 c5         1 TRH       0.345700
     27 N11         13.3070    56.0980    49.8050 n          1 TRH      -0.310000
     28 C21         13.0640    54.7590    49.4630 c          1 TRH       0.615000
     29 O21         11.9490    54.2650    49.4190 o          1 TRH      -0.616000
     30 N31         14.1610    54.0090    49.1780 ns         1 TRH      -0.471500
     31 C41         15.4650    54.3890    49.1830 c          1 TRH       0.583200
     32 O41         16.3490    53.5950    48.9020 o          1 TRH      -0.584000
     33 C51         15.6860    55.8060    49.5500 cc         1 TRH      -0.263400
     34 C5A         17.1230    56.2730    49.5720 c3         1 TRH      -0.017900
     35 C61         14.6060    56.6120    49.8460 cd         1 TRH       0.030600
     36 HC1         18.7960    61.6640    52.9000 h2         1 TRH       0.083700
     37 HC2         17.3100    60.4590    54.4720 h1         1 TRH       0.076700
     38 HO2         17.0290    61.6160    56.5990 ho         1 TRH       0.478000
     39 HC3         19.6770    60.4110    54.8890 h1         1 TRH       0.077700
     40 HO3         19.6390    60.3750    57.2900 ho         1 TRH       0.439000
     41 HC4         19.3360    62.9490    56.5770 h1         1 TRH       0.045700
     42 HO4         21.5840    62.7700    56.8380 ho         1 TRH       0.489000
     43 HC5         20.7480    62.5800    53.8620 h1         1 TRH       0.059700
     44 HC61        20.9040    65.0970    53.8950 hc         1 TRH       0.034033
     45 HC62        20.2610    65.1240    55.5470 hc         1 TRH       0.034033
     46 HC63        21.8390    64.3870    55.2140 hc         1 TRH       0.034033
     47 H5'1        12.3870    60.9460    51.8250 h1         1 TRH       0.052200
     48 H5'2        13.0450    60.9280    50.1890 h1         1 TRH       0.052200
     49 H4'C        10.9560    59.7740    50.1270 h1         1 TRH       0.060700
     50 H3'C        11.2810    58.8180    52.7570 h1         1 TRH       0.082700
     51 H3'O         9.4690    57.5450    52.3630 ho         1 TRH       0.487000
     52 H2'1        13.0460    57.2270    52.1230 hc         1 TRH       0.074200
     53 H2'2        11.6210    56.1860    52.1240 hc         1 TRH       0.074200
     54 H1'C        11.2300    56.5440    49.6840 h2         1 TRH       0.078700
     55 H31N        13.9830    53.0490    48.9330 hn         1 TRH       0.315500
     56 HCA1        17.1960    57.3270    49.8680 hc         1 TRH       0.054700
     57 HCA2        17.7170    55.6880    50.2850 hc         1 TRH       0.054700
     58 HCA3        17.5860    56.1740    48.5830 hc         1 TRH       0.054700
     59 H61C        14.6790    57.6630    50.1250 h4         1 TRH       0.292000
@<TRIPOS>BOND
     1     1     2 1   
     2     2     3 1   
     3     2     4 1   
     4     2    15 1   
     5     4     5 1   
     6     5     6 1   
     7     5    13 1   
     8     5    36 1   
     9     6     7 1   
    10     6     8 1   
    11     6    37 1   
    12     7    38 1   
    13     8     9 1   
    14     8    10 1   
    15     8    39 1   
    16     9    40 1   
    17    10    11 1   
    18    10    12 1   
    19    10    41 1   
    20    11    42 1   
    21    12    13 1   
    22    12    14 1   
    23    12    43 1   
    24    14    44 1   
    25    14    45 1   
    26    14    46 1   
    27    15    16 1   
    28    16    17 1   
    29    16    18 1   
    30    16    19 1   
    31    19    20 1   
    32    20    21 1   
    33    20    47 1   
    34    20    48 1   
    35    21    22 1   
    36    21    23 1   
    37    21    49 1   
    38    22    26 1   
    39    23    24 1   
    40    23    25 1   
    41    23    50 1   
    42    24    51 1   
    43    25    26 1   
    44    25    52 1   
    45    25    53 1   
    46    26    27 1   
    47    26    54 1   
    48    27    28 1   
    49    27    35 1   
    50    28    29 2   
    51    28    30 1   
    52    30    31 1   
    53    30    55 1   
    54    31    32 2   
    55    31    33 1   
    56    33    34 1   
    57    33    35 2   
    58    34    56 1   
    59    34    57 1   
    60    34    58 1   
    61    35    59 1   
@<TRIPOS>SUBSTRUCTURE
     1 TRH         1 TEMP              0 ****  ****    0 ROOT
