@<TRIPOS>MOLECULE
TRH
   59    61     1     0     0
SMALL
abcg2


@<TRIPOS>ATOM
      1 O4P         14.4930    63.6330    51.6250 o          1 TRH      -0.849000
      2 P2          15.0690    62.3740    52.1720 p5         1 TRH       1.481800
      3 O3P         15.6010    61.3110    51.2750 o          1 TRH      -0.849000
      4 O1          16.2250    62.8550    53.2280 os         1 TRH      -0.562400
      5 C1          17.1220    61.9310    53.7790 c6         1 TRH       0.443300
      6 C2          17.3990    62.2900    55.2340 c6         1 TRH       0.142300
      7 O2          17.8280    63.6420    55.3290 oh         1 TRH      -0.693000
      8 C3          18.4610    61.3370    55.7730 c6         1 TRH       0.122300
      9 O3          18.7830    61.7610    57.0960 oh         1 TRH      -0.683000
     10 C4          19.6890    61.3210    54.8760 c6         1 TRH       0.097300
     11 O4          20.5670    60.3280    55.4110 oh         1 TRH      -0.745000
     12 C5          19.2760    61.0070    53.4330 c6         1 TRH       0.158300
     13 O5          18.3110    61.9760    53.0040 os         1 TRH      -0.461000
     14 C6          20.4330    61.0500    52.4580 c3         1 TRH      -0.084100
     15 OPP         13.9470    61.7580    53.1840 os         1 TRH      -0.734800
     16 P           13.6200    60.2580    53.7320 p5         1 TRH       1.493800
     17 O1P         12.4140    60.4100    54.5970 o          1 TRH      -0.863500
     18 O2P         14.8500    59.5910    54.2490 o          1 TRH      -0.863500
     19 O8          13.2330    59.4600    52.3750 os         1 TRH      -0.628400
     20 C11         12.1870    59.9170    51.5210 c3         1 TRH       0.215600
     21 C10         11.6580    58.7550    50.7100 c5         1 TRH       0.167300
     22 O7          12.6770    58.2590    49.8150 os         1 TRH      -0.450000
     23 C9          11.2040    57.5540    51.5450 c5         1 TRH       0.138300
     24 O6          10.0580    56.9970    50.8940 oh         1 TRH      -0.741000
     25 C8          12.4070    56.6200    51.4890 c5         1 TRH      -0.150400
     26 C7          12.9800    56.8990    50.1020 c5         1 TRH       0.345700
     27 N11         14.4280    56.7080    49.9990 n          1 TRH      -0.310000
     28 C21         14.9180    55.7350    49.1490 c          1 TRH       0.615000
     29 O21         14.2150    55.0090    48.4590 o          1 TRH      -0.616000
     30 N31         16.2900    55.6360    49.1430 ns         1 TRH      -0.471500
     31 C41         17.2050    56.3850    49.8760 c          1 TRH       0.583200
     32 O41         18.4070    56.1620    49.7640 o          1 TRH      -0.584000
     33 C51         16.6130    57.3960    50.7300 cc         1 TRH      -0.263400
     34 C5A         17.5080    58.2700    51.5520 c3         1 TRH      -0.017900
     35 C61         15.2690    57.5030    50.7470 cd         1 TRH       0.030600
     36 HC1         16.7020    60.9210    53.7500 h2         1 TRH       0.083700
     37 HC2         16.4710    62.1470    55.7990 h1         1 TRH       0.076700
     38 HO2         18.2540    63.7340    56.1930 ho         1 TRH       0.478000
     39 HC3         18.0420    60.3240    55.7960 h1         1 TRH       0.077700
     40 HO3         19.6040    61.3160    57.3490 ho         1 TRH       0.439000
     41 HC4         20.1700    62.3030    54.9020 h1         1 TRH       0.045700
     42 HO4         21.4710    60.5270    55.1390 ho         1 TRH       0.489000
     43 HC5         18.8150    60.0110    53.4200 h1         1 TRH       0.059700
     44 HC61        20.0840    60.8210    51.4500 hc         1 TRH       0.034033
     45 HC62        20.8920    62.0410    52.4560 hc         1 TRH       0.034033
     46 HC63        21.1890    60.3140    52.7320 hc         1 TRH       0.034033
     47 H5'1        11.3690    60.3420    52.1080 h1         1 TRH       0.052200
     48 H5'2        12.5760    60.6870    50.8500 h1         1 TRH       0.052200
     49 H4'C        10.8220    59.1140    50.1060 h1         1 TRH       0.060700
     50 H3'C        10.9560    57.8480    52.5670 h1         1 TRH       0.082700
     51 H3'O         9.7970    56.2000    51.3730 ho         1 TRH       0.487000
     52 H2'1        13.1240    56.8960    52.2610 hc         1 TRH       0.074200
     53 H2'2        12.1320    55.5730    51.6170 hc         1 TRH       0.074200
     54 H1'C        12.5420    56.2520    49.3470 h2         1 TRH       0.078700
     55 H31N        16.6710    54.9230    48.5330 hn         1 TRH       0.315500
     56 HCA1        16.9280    59.0340    52.0640 hc         1 TRH       0.054700
     57 HCA2        18.0550    57.6830    52.2950 hc         1 TRH       0.054700
     58 HCA3        18.2520    58.7640    50.9240 hc         1 TRH       0.054700
     59 H61C        14.7630    58.2410    51.3530 h4         1 TRH       0.292000
@<TRIPOS>BOND
     1     1     2 1   
     2     2     3 1   
     3     2     4 1   
     4     2    15 1   
     5     4     5 1   
     6     5     6 1   
     7     5    13 1   
     8     5    36 1   
     9     6     7 1   
    10     6     8 1   
    11     6    37 1   
    12     7    38 1   
    13     8     9 1   
    14     8    10 1   
    15     8    39 1   
    16     9    40 1   
    17    10    11 1   
    18    10    12 1   
    19    10    41 1   
    20    11    42 1   
    21    12    13 1   
    22    12    14 1   
    23    12    43 1   
    24    14    44 1   
    25    14    45 1   
    26    14    46 1   
    27    15    16 1   
    28    16    17 1   
    29    16    18 1   
    30    16    19 1   
    31    19    20 1   
    32    20    21 1   
    33    20    47 1   
    34    20    48 1   
    35    21    22 1   
    36    21    23 1   
    37    21    49 1   
    38    22    26 1   
    39    23    24 1   
    40    23    25 1   
    41    23    50 1   
    42    24    51 1   
    43    25    26 1   
    44    25    52 1   
    45    25    53 1   
    46    26    27 1   
    47    26    54 1   
    48    27    28 1   
    49    27    35 1   
    50    28    29 2   
    51    28    30 1   
    52    30    31 1   
    53    30    55 1   
    54    31    32 2   
    55    31    33 1   
    56    33    34 1   
    57    33    35 2   
    58    34    56 1   
    59    34    57 1   
    60    34    58 1   
    61    35    59 1   
@<TRIPOS>SUBSTRUCTURE
     1 TRH         1 TEMP              0 ****  ****    0 ROOT
