@<TRIPOS>MOLECULE
TRI
    8     8     1     0     0
SMALL
No Charge or Current Charge


@<TRIPOS>ATOM
      1 N1          -0.6780     0.0650     0.9940 nc         1 TRI      -0.358000
      2 N2           0.7030     0.0280     1.0080 nc         1 TRI      -0.358000
      3 C3           1.1200    -0.0260    -0.2480 cd         1 TRI       0.367900
      4 N4           0.0330    -0.0260    -1.0790 na         1 TRI      -0.508000
      5 C5          -1.0710     0.0320    -0.2710 cd         1 TRI       0.367900
      6 H3           2.1430    -0.0660    -0.6040 h5         1 TRI       0.064100
      7 HN4          0.0420    -0.0610    -2.0890 hn         1 TRI       0.361000
      8 H5          -2.0870     0.0460    -0.6490 h5         1 TRI       0.064100
@<TRIPOS>BOND
     1     1     2 1   
     2     1     5 2   
     3     2     3 2   
     4     3     4 1   
     5     3     6 1   
     6     4     5 1   
     7     4     7 1   
     8     5     8 1   
@<TRIPOS>SUBSTRUCTURE
     1 TRI         1 TEMP              0 ****  ****    0 ROOT
