@<TRIPOS>MOLECULE
TRJ
   22    22     1     0     0
SMALL
No Charge or Current Charge


@<TRIPOS>ATOM
      1 N            1.1800    -0.5750     3.1620 n8         1 TRJ      -0.994200
      2 CA           0.7460     0.6490     2.4650 c3         1 TRJ       0.197600
      3 CG          -0.0160     0.3220     1.1880 ca         1 TRJ      -0.094300
      4 CD1          0.6840     0.0230     0.0020 ca         1 TRJ      -0.059000
      5 CD2         -1.4250     0.3220     1.1780 ca         1 TRJ      -0.109000
      6 CE1         -0.0110    -0.2740    -1.1880 ca         1 TRJ      -0.094300
      7 CE2         -2.1240     0.0280    -0.0050 ca         1 TRJ      -0.117000
      8 CZ          -1.4200    -0.2690    -1.1850 ca         1 TRJ      -0.109000
      9 CB           0.7560    -0.6040    -2.4620 c3         1 TRJ       0.197600
     10 N2           1.1970     0.6180    -3.1570 n8         1 TRJ      -0.994200
     11 HN1          1.6050    -0.3120     4.0600 hn         1 TRJ       0.394500
     12 HN2          0.3470    -1.1090     3.4330 hn         1 TRJ       0.394500
     13 HA1          0.1070     1.2340     3.1420 h1         1 TRJ       0.032700
     14 HA2          1.6310     1.2540     2.2250 h1         1 TRJ       0.032700
     15 HD11         1.7720     0.0210     0.0040 ha         1 TRJ       0.145000
     16 HD21        -1.9780     0.5520     2.0860 ha         1 TRJ       0.106000
     17 HE21        -3.2120     0.0300    -0.0080 ha         1 TRJ       0.110000
     18 HZ1         -1.9700    -0.4970    -2.0960 ha         1 TRJ       0.106000
     19 HB1          1.6380    -1.2120    -2.2170 h1         1 TRJ       0.032700
     20 HB2          0.1180    -1.1870    -3.1410 h1         1 TRJ       0.032700
     21 HN21         1.6250     0.3540    -4.0530 hn         1 TRJ       0.394500
     22 HN22         0.3660     1.1540    -3.4320 hn         1 TRJ       0.394500
@<TRIPOS>BOND
     1     1     2 1   
     2     1    11 1   
     3     1    12 1   
     4     2     3 1   
     5     2    13 1   
     6     2    14 1   
     7     3     4 ar  
     8     3     5 ar  
     9     4     6 ar  
    10     4    15 1   
    11     5     7 ar  
    12     5    16 1   
    13     6     8 ar  
    14     6     9 1   
    15     7     8 ar  
    16     7    17 1   
    17     8    18 1   
    18     9    10 1   
    19     9    19 1   
    20     9    20 1   
    21    10    21 1   
    22    10    22 1   
@<TRIPOS>SUBSTRUCTURE
     1 TRJ         1 TEMP              0 ****  ****    0 ROOT
