@<TRIPOS>MOLECULE
TRJ
   22    22     1     0     0
SMALL
abcg2


@<TRIPOS>ATOM
      1 N            1.6920    -0.2090     2.6420 n8         1 TRJ      -0.994200
      2 CA           0.5390     0.6540     2.4440 c3         1 TRJ       0.197600
      3 CG          -0.2080     0.3160     1.1790 ca         1 TRJ      -0.094300
      4 CD1          0.4750     0.0230     0.0010 ca         1 TRJ      -0.059000
      5 CD2         -1.6010     0.3120     1.1650 ca         1 TRJ      -0.109000
      6 CE1         -0.2050    -0.2660    -1.1790 ca         1 TRJ      -0.094300
      7 CE2         -2.2920     0.0300    -0.0050 ca         1 TRJ      -0.117000
      8 CZ          -1.5970    -0.2550    -1.1720 ca         1 TRJ      -0.109000
      9 CB           0.5470    -0.6090    -2.4410 c3         1 TRJ       0.197600
     10 N2           1.7020     0.2520    -2.6350 n8         1 TRJ      -0.994200
     11 HN1          2.2000     0.0970     3.4620 hn         1 TRJ       0.394500
     12 HN2          1.3760    -1.1490     2.8450 hn         1 TRJ       0.394500
     13 HA1         -0.1710     0.6450     3.2820 h1         1 TRJ       0.032700
     14 HA2          0.9040     1.6830     2.3730 h1         1 TRJ       0.032700
     15 HD11         1.5570     0.0200     0.0040 ha         1 TRJ       0.145000
     16 HD21        -2.1480     0.5310     2.0750 ha         1 TRJ       0.106000
     17 HE21        -3.3750     0.0330    -0.0070 ha         1 TRJ       0.110000
     18 HZ1         -2.1410    -0.4720    -2.0840 ha         1 TRJ       0.106000
     19 HB1          0.9100    -1.6390    -2.3660 h1         1 TRJ       0.032700
     20 HB2         -0.1600    -0.6000    -3.2810 h1         1 TRJ       0.032700
     21 HN21         2.2210    -0.0660    -3.4450 hn         1 TRJ       0.394500
     22 HN22         1.3900     1.1890    -2.8550 hn         1 TRJ       0.394500
@<TRIPOS>BOND
     1     1     2 1   
     2     1    11 1   
     3     1    12 1   
     4     2     3 1   
     5     2    13 1   
     6     2    14 1   
     7     3     4 ar  
     8     3     5 ar  
     9     4     6 ar  
    10     4    15 1   
    11     5     7 ar  
    12     5    16 1   
    13     6     8 ar  
    14     6     9 1   
    15     7     8 ar  
    16     7    17 1   
    17     8    18 1   
    18     9    10 1   
    19     9    19 1   
    20     9    20 1   
    21    10    21 1   
    22    10    22 1   
@<TRIPOS>SUBSTRUCTURE
     1 TRJ         1 TEMP              0 ****  ****    0 ROOT
