@<TRIPOS>MOLECULE
TRK
   56    58     1     0     0
SMALL
bcc


@<TRIPOS>ATOM
      1 N            7.5460    -0.4760     0.8590 ns         1 TRK      -0.555900
      2 C1          -2.9210     0.4320    -0.7390 c6         1 TRK       0.153100
      3 O1          -3.1920    -0.9560    -0.6070 os         1 TRK      -0.423600
      4 C2          -1.7960     0.5820    -1.7680 c3         1 TRK      -0.024500
      5 O2           6.1850    -2.3130     1.1280 o          1 TRK      -0.692500
      6 C3          -2.1910    -0.0280    -3.1170 c3         1 TRK      -0.080100
      7 O3           5.5430     2.0450    -0.5270 o          1 TRK      -0.542100
      8 C4          -0.5230    -0.0260    -1.2760 c2         1 TRK      -0.111200
      9 O4           3.7550    -1.9010     0.3640 oh         1 TRK      -0.501100
     10 C5           0.6930     0.5490    -1.2050 ce         1 TRK      -0.115200
     11 O5          -3.7320    -0.8160     1.6340 os         1 TRK      -0.397600
     12 C6           1.7740    -0.2620    -0.6770 ce         1 TRK      -0.024000
     13 C7           3.0440     0.1610    -0.5160 cf         1 TRK      -0.205000
     14 C8           4.0820    -0.6740     0.0310 cf         1 TRK       0.354100
     15 C9           5.3830    -0.2460     0.2180 ce         1 TRK      -0.510400
     16 C10          6.3860    -1.1400     0.7830 c          1 TRK       0.734700
     17 C11          7.4670     0.8780     0.3670 c5         1 TRK      -0.012000
     18 C12          6.0080     1.0240    -0.0570 c          1 TRK       0.611300
     19 C13          1.0000     1.9580    -1.6180 c3         1 TRK      -0.055900
     20 C14         -2.5900     1.0440     0.6240 c6         1 TRK      -0.113700
     21 C15         -2.4230     2.5550     0.5600 c3         1 TRK      -0.087100
     22 C16         -3.6420     0.5940     1.6510 c6         1 TRK       0.041100
     23 C17         -4.1210    -1.3100     0.3840 c6         1 TRK       0.378800
     24 C18         -4.1170    -2.8210     0.4880 c3         1 TRK      -0.072100
     25 C19         -5.4870    -0.7470     0.0030 c2         1 TRK      -0.093400
     26 C20         -6.2950    -1.4860    -1.0050 c3         1 TRK      -0.061900
     27 C21         -5.8940     0.4140     0.5350 ce         1 TRK      -0.247200
     28 C22         -5.0140     1.1940     1.4010 c          1 TRK       0.549300
     29 H            8.3960    -0.8900     1.2050 hn         1 TRK       0.337500
     30 H111         7.7150     1.6120     1.1380 h1         1 TRK       0.072200
     31 H112         8.1290     1.0440    -0.4860 h1         1 TRK       0.072200
     32 H2          -1.6700     1.6560    -1.9220 hc         1 TRK       0.061700
     33 H14         -1.6470     0.6080     0.9760 hc         1 TRK       0.078700
     34 H31C        -2.2870    -1.1110    -3.0630 hc         1 TRK       0.041367
     35 H32C        -3.1440     0.3810    -3.4560 hc         1 TRK       0.041367
     36 H33C        -1.4390     0.2040    -3.8720 hc         1 TRK       0.041367
     37 H4          -0.6030    -1.0630    -0.9600 ha         1 TRK       0.136000
     38 H6           1.5080    -1.2730    -0.3880 ha         1 TRK       0.139000
     39 H131         1.3780     2.5410    -0.7760 hc         1 TRK       0.046367
     40 H132         1.7670     1.9790    -2.3930 hc         1 TRK       0.046367
     41 H133         0.1310     2.4780    -2.0120 hc         1 TRK       0.046367
     42 H16         -3.3130     0.8810     2.6530 h1         1 TRK       0.106700
     43 H7           3.3400     1.1620    -0.7930 ha         1 TRK       0.171000
     44 H151        -3.2570     3.0450     0.0560 hc         1 TRK       0.045033
     45 H152        -2.3400     2.9800     1.5610 hc         1 TRK       0.045033
     46 H153        -1.5130     2.8220     0.0230 hc         1 TRK       0.045033
     47 H181        -3.1330    -3.1650     0.8090 hc         1 TRK       0.058367
     48 H182        -4.8560    -3.1580     1.2150 hc         1 TRK       0.058367
     49 H183        -4.3440    -3.2840    -0.4700 hc         1 TRK       0.058367
     50 H201        -6.6010    -2.4640    -0.6280 hc         1 TRK       0.053700
     51 H202        -7.1900    -0.9320    -1.2800 hc         1 TRK       0.053700
     52 H203        -5.7120    -1.6670    -1.9100 hc         1 TRK       0.053700
     53 H21         -6.8600     0.8380     0.2830 ha         1 TRK       0.153000
     54 HO4          4.5680    -2.3550     0.7230 ho         1 TRK       0.503000
     55 H1          -3.8010     0.9460    -1.1550 h1         1 TRK       0.045700
     56 O6          -5.3290     2.2750     1.8570 o          1 TRK      -0.506100
@<TRIPOS>BOND
     1     1    16 1   
     2     1    17 1   
     3     1    29 1   
     4     2     3 1   
     5     2     4 1   
     6     2    20 1   
     7     2    55 1   
     8     3    23 1   
     9     4     6 1   
    10     4     8 1   
    11     4    32 1   
    12     5    16 2   
    13     6    34 1   
    14     6    35 1   
    15     6    36 1   
    16     7    18 2   
    17     8    10 2   
    18     8    37 1   
    19     9    14 1   
    20     9    54 1   
    21    10    12 1   
    22    10    19 1   
    23    11    22 1   
    24    11    23 1   
    25    12    13 2   
    26    12    38 1   
    27    13    14 1   
    28    13    43 1   
    29    14    15 2   
    30    15    16 1   
    31    15    18 1   
    32    17    18 1   
    33    17    30 1   
    34    17    31 1   
    35    19    39 1   
    36    19    40 1   
    37    19    41 1   
    38    20    21 1   
    39    20    22 1   
    40    20    33 1   
    41    21    44 1   
    42    21    45 1   
    43    21    46 1   
    44    22    28 1   
    45    22    42 1   
    46    23    24 1   
    47    23    25 1   
    48    24    47 1   
    49    24    48 1   
    50    24    49 1   
    51    25    26 1   
    52    25    27 2   
    53    26    50 1   
    54    26    51 1   
    55    26    52 1   
    56    27    28 1   
    57    27    53 1   
    58    28    56 2   
@<TRIPOS>SUBSTRUCTURE
     1 TRK         1 TEMP              0 ****  ****    0 ROOT
