@<TRIPOS>MOLECULE
TRK
   56    58     1     0     0
SMALL
No Charge or Current Charge


@<TRIPOS>ATOM
      1 N            7.8300    -0.3770     0.8100 ns         1 TRK      -0.488900
      2 C1          -2.9710     0.4020    -0.6210 c6         1 TRK       0.176300
      3 O1          -3.2420    -1.0130    -0.4950 os         1 TRK      -0.470000
      4 C2          -1.7680     0.5760    -1.6100 c3         1 TRK      -0.024500
      5 O2           6.5040    -2.1890     1.2270 o          1 TRK      -0.617000
      6 C3          -2.0840     0.0320    -3.0230 c3         1 TRK      -0.080100
      7 O3           5.6360     2.0070    -0.7000 o          1 TRK      -0.542100
      8 C4          -0.4670    -0.0350    -1.0980 c2         1 TRK      -0.161200
      9 O4           4.0010    -1.8660     0.4860 oh         1 TRK      -0.540100
     10 C5           0.7960     0.4430    -1.2310 ce         1 TRK      -0.115200
     11 O5          -3.9470    -0.9070     1.7030 os         1 TRK      -0.444000
     12 C6           1.9250    -0.3190    -0.6570 ce         1 TRK      -0.074000
     13 C7           3.2150     0.1150    -0.5090 cf         1 TRK      -0.255000
     14 C8           4.3250    -0.6420     0.0670 cf         1 TRK       0.354100
     15 C9           5.6140    -0.2340     0.2140 ce         1 TRK      -0.510400
     16 C10          6.6570    -1.0580     0.8030 c          1 TRK       0.592200
     17 C11          7.7070     0.9740     0.2290 c5         1 TRK      -0.012000
     18 C12          6.2080     1.0650    -0.1730 c          1 TRK       0.611300
     19 C13          1.1240     1.7140    -2.0100 c3         1 TRK      -0.055900
     20 C14         -2.7360     1.0070     0.7980 c6         1 TRK      -0.113700
     21 C15         -2.6060     2.5580     0.7810 c3         1 TRK      -0.087100
     22 C16         -3.8400     0.5340     1.8020 c6         1 TRK       0.064300
     23 C17         -4.3330    -1.3370     0.3750 c6         1 TRK       0.425200
     24 C18         -4.4400    -2.8810     0.4260 c3         1 TRK      -0.072100
     25 C19         -5.6320    -0.6400    -0.1090 c2         1 TRK      -0.093400
     26 C20         -6.3960    -1.3050    -1.2420 c3         1 TRK      -0.061900
     27 C21         -6.0080     0.5420     0.4400 ce         1 TRK      -0.297200
     28 C22         -5.2530     1.1300     1.5750 c          1 TRK       0.549300
     29 H            8.6630    -0.8140     1.1900 hn         1 TRK       0.337500
     30 H111         7.9290     1.7670     0.9540 h1         1 TRK       0.072200
     31 H112         8.3250     1.1070    -0.6680 h1         1 TRK       0.072200
     32 H2          -1.6250     1.6550    -1.7350 hc         1 TRK       0.061700
     33 H14         -1.7770     0.6320     1.1800 hc         1 TRK       0.078700
     34 H31C        -2.2260    -1.0550    -3.0030 hc         1 TRK       0.041367
     35 H32C        -2.9970     0.4910    -3.4190 hc         1 TRK       0.041367
     36 H33C        -1.2630     0.2550    -3.7150 hc         1 TRK       0.041367
     37 H4          -0.6280    -0.9680    -0.5540 ha         1 TRK       0.186000
     38 H6           1.6780    -1.3230    -0.3050 ha         1 TRK       0.189000
     39 H131         1.2280     2.5730    -1.3370 hc         1 TRK       0.046367
     40 H132         2.0580     1.6150    -2.5760 hc         1 TRK       0.046367
     41 H133         0.3570     1.9650    -2.7500 hc         1 TRK       0.046367
     42 H16         -3.5500     0.8010     2.8280 h1         1 TRK       0.106700
     43 H7           3.4420     1.1230    -0.8370 ha         1 TRK       0.221000
     44 H151        -3.4790     3.0320     0.3140 hc         1 TRK       0.045033
     45 H152        -2.5150     2.9580     1.7980 hc         1 TRK       0.045033
     46 H153        -1.7160     2.8830     0.2290 hc         1 TRK       0.045033
     47 H181        -3.5470    -3.3190     0.8850 hc         1 TRK       0.058367
     48 H182        -5.3080    -3.1930     1.0170 hc         1 TRK       0.058367
     49 H183        -4.5390    -3.3100    -0.5770 hc         1 TRK       0.058367
     50 H201        -6.8680    -2.2380    -0.9140 hc         1 TRK       0.053700
     51 H202        -7.1920    -0.6540    -1.6230 hc         1 TRK       0.053700
     52 H203        -5.7320    -1.5360    -2.0830 hc         1 TRK       0.053700
     53 H21         -6.9320     1.0420     0.1580 ha         1 TRK       0.203000
     54 HO4          4.8560    -2.2230     0.8390 ho         1 TRK       0.542000
     55 H1          -3.8390     0.8920    -1.0840 h1         1 TRK       0.045700
     56 O6          -5.8040     1.8650     2.3850 o          1 TRK      -0.506100
@<TRIPOS>BOND
     1     1    16 1   
     2     1    17 1   
     3     1    29 1   
     4     2     3 1   
     5     2     4 1   
     6     2    20 1   
     7     2    55 1   
     8     3    23 1   
     9     4     6 1   
    10     4     8 1   
    11     4    32 1   
    12     5    16 2   
    13     6    34 1   
    14     6    35 1   
    15     6    36 1   
    16     7    18 2   
    17     8    10 2   
    18     8    37 1   
    19     9    14 1   
    20     9    54 1   
    21    10    12 1   
    22    10    19 1   
    23    11    22 1   
    24    11    23 1   
    25    12    13 2   
    26    12    38 1   
    27    13    14 1   
    28    13    43 1   
    29    14    15 2   
    30    15    16 1   
    31    15    18 1   
    32    17    18 1   
    33    17    30 1   
    34    17    31 1   
    35    19    39 1   
    36    19    40 1   
    37    19    41 1   
    38    20    21 1   
    39    20    22 1   
    40    20    33 1   
    41    21    44 1   
    42    21    45 1   
    43    21    46 1   
    44    22    28 1   
    45    22    42 1   
    46    23    24 1   
    47    23    25 1   
    48    24    47 1   
    49    24    48 1   
    50    24    49 1   
    51    25    26 1   
    52    25    27 2   
    53    26    50 1   
    54    26    51 1   
    55    26    52 1   
    56    27    28 1   
    57    27    53 1   
    58    28    56 2   
@<TRIPOS>SUBSTRUCTURE
     1 TRK         1 TEMP              0 ****  ****    0 ROOT
