@<TRIPOS>MOLECULE
TRL
   64    64     1     0     0
SMALL
abcg2


@<TRIPOS>ATOM
      1 O1           2.8300    -2.0010     2.6160 o          1 TRL      -0.528100
      2 C28          2.8370    -0.9560     2.0150 c          1 TRL       0.583900
      3 C27          1.9760     0.2390     2.3490 c3         1 TRL      -0.179700
      4 C3           2.6970     1.5190     1.9220 c3         1 TRL      -0.063400
      5 C4           1.9930     2.7910     2.3630 c3         1 TRL      -0.087100
      6 C8           0.5580     0.0200     1.7800 c5         1 TRL       0.108700
      7 N10          0.5050    -0.6110     0.4530 n          1 TRL      -0.408800
      8 C9          -0.1490    -1.9220     0.5410 c5         1 TRL       0.095000
      9 C12         -1.1050    -1.7490     1.7060 c5         1 TRL      -0.128400
     10 C14         -0.2580    -0.9370     2.6750 c5         1 TRL       0.200500
     11 N3          -0.9540    -0.1730     3.6900 n7         1 TRL      -0.895300
     12 S1          -1.3680    -0.8960     5.1170 s6         1 TRL       1.194100
     13 O4          -1.6150    -2.3210     4.9360 o          1 TRL      -0.540000
     14 O5          -2.4150    -0.0700     5.7000 o          1 TRL      -0.540000
     15 C1           0.1170    -0.7260     6.0740 c3         1 TRL      -0.345100
     16 C2           0.5670     0.1670    -0.6510 c          1 TRL       0.596100
     17 O2           0.7660     1.3710    -0.5810 o          1 TRL      -0.604100
     18 C5           0.4590    -0.4890    -2.0270 c3         1 TRL       0.063700
     19 C6           1.8260    -1.0230    -2.5240 c3         1 TRL      -0.078700
     20 C13          2.9170     0.0420    -2.5380 c3         1 TRL      -0.088600
     21 C7           2.2820    -2.2690    -1.7760 c3         1 TRL      -0.088600
     22 N1          -0.0830     0.5010    -2.9240 ns         1 TRL      -0.504900
     23 C11         -0.7680     0.1640    -4.0350 c          1 TRL       0.653100
     24 O3          -1.0550    -0.9780    -4.3390 o          1 TRL      -0.558000
     25 O6          -1.0810     1.2570    -4.7300 os         1 TRL      -0.475100
     26 C15         -1.8840     1.2130    -5.9400 c3         1 TRL       0.225000
     27 C21         -1.9870     2.6810    -6.3370 c3         1 TRL      -0.109100
     28 C26         -1.1750     0.4300    -7.0390 c3         1 TRL      -0.109100
     29 C25         -3.2750     0.6640    -5.6470 c3         1 TRL      -0.109100
     30 H28          3.5070    -0.8190     1.1450 h4         1 TRL      -0.007800
     31 H27          1.8570     0.2720     3.4380 hc         1 TRL       0.074700
     32 HC31         2.8510     1.5310     0.8420 hc         1 TRL       0.048200
     33 HC32         3.6950     1.4950     2.3700 hc         1 TRL       0.048200
     34 HC41         2.6000     3.6650     2.1250 hc         1 TRL       0.037367
     35 HC42         1.0320     2.9220     1.8670 hc         1 TRL       0.037367
     36 HC43         1.8190     2.7950     3.4400 hc         1 TRL       0.037367
     37 HC8          0.0460     0.9840     1.7320 h1         1 TRL       0.086700
     38 HC91         0.5870    -2.7040     0.7440 h1         1 TRL       0.066700
     39 HC92        -0.6590    -2.1870    -0.3800 h1         1 TRL       0.066700
     40 H121        -1.4340    -2.6970     2.1270 hc         1 TRL       0.074200
     41 H122        -1.9840    -1.1810     1.3930 hc         1 TRL       0.074200
     42 H14          0.4300    -1.6180     3.1820 h1         1 TRL       0.087700
     43 HN3         -1.6920     0.4340     3.3480 hn         1 TRL       0.495000
     44 HC11        -0.0560    -1.1920     7.0430 h1         1 TRL       0.105700
     45 HC12         0.9380    -1.2310     5.5700 h1         1 TRL       0.105700
     46 HC13         0.3410     0.3300     6.1980 h1         1 TRL       0.105700
     47 HC5         -0.2330    -1.3310    -2.0080 h1         1 TRL       0.084700
     48 HC6          1.6370    -1.3230    -3.5590 hc         1 TRL       0.068700
     49 H131         3.7980    -0.3370    -3.0560 hc         1 TRL       0.037867
     50 H132         2.6000     0.9480    -3.0560 hc         1 TRL       0.037867
     51 H133         3.2310     0.3240    -1.5310 hc         1 TRL       0.037867
     52 HC71         2.5450    -2.0520    -0.7400 hc         1 TRL       0.037867
     53 HC72         1.5130    -3.0430    -1.7720 hc         1 TRL       0.037867
     54 HC73         3.1690    -2.6870    -2.2520 hc         1 TRL       0.037867
     55 HN1          0.1470     1.4680    -2.7520 hn         1 TRL       0.348500
     56 H211        -2.5960     2.7790    -7.2350 hc         1 TRL       0.049811
     57 H212        -2.4570     3.2730    -5.5490 hc         1 TRL       0.049811
     58 H213        -1.0050     3.1070    -6.5490 hc         1 TRL       0.049811
     59 H261        -0.1700     0.8200    -7.2070 hc         1 TRL       0.049811
     60 H262        -1.1050    -0.6320    -6.8150 hc         1 TRL       0.049811
     61 H263        -1.7300     0.5390    -7.9720 hc         1 TRL       0.049811
     62 H251        -3.7450     1.2180    -4.8330 hc         1 TRL       0.049811
     63 H252        -3.9020     0.7840    -6.5310 hc         1 TRL       0.049811
     64 H253        -3.2630    -0.3930    -5.3880 hc         1 TRL       0.049811
@<TRIPOS>BOND
     1     1     2 2   
     2     2     3 1   
     3     2    30 1   
     4     3     4 1   
     5     3     6 1   
     6     3    31 1   
     7     4     5 1   
     8     4    32 1   
     9     4    33 1   
    10     5    34 1   
    11     5    35 1   
    12     5    36 1   
    13     6     7 1   
    14     6    10 1   
    15     6    37 1   
    16     7     8 1   
    17     7    16 1   
    18     8     9 1   
    19     8    38 1   
    20     8    39 1   
    21     9    10 1   
    22     9    40 1   
    23     9    41 1   
    24    10    11 1   
    25    10    42 1   
    26    11    12 1   
    27    11    43 1   
    28    12    13 2   
    29    12    14 2   
    30    12    15 1   
    31    15    44 1   
    32    15    45 1   
    33    15    46 1   
    34    16    17 2   
    35    16    18 1   
    36    18    19 1   
    37    18    22 1   
    38    18    47 1   
    39    19    20 1   
    40    19    21 1   
    41    19    48 1   
    42    20    49 1   
    43    20    50 1   
    44    20    51 1   
    45    21    52 1   
    46    21    53 1   
    47    21    54 1   
    48    22    23 1   
    49    22    55 1   
    50    23    24 2   
    51    23    25 1   
    52    25    26 1   
    53    26    27 1   
    54    26    28 1   
    55    26    29 1   
    56    27    56 1   
    57    27    57 1   
    58    27    58 1   
    59    28    59 1   
    60    28    60 1   
    61    28    61 1   
    62    29    62 1   
    63    29    63 1   
    64    29    64 1   
@<TRIPOS>SUBSTRUCTURE
     1 TRL         1 TEMP              0 ****  ****    0 ROOT
