@<TRIPOS>MOLECULE
TRL
   64    64     1     0     0
SMALL
No Charge or Current Charge


@<TRIPOS>ATOM
      1 O1           3.4040    -1.2820     3.0330 o          1 TRL      -0.528100
      2 C28          2.8480    -0.6870     2.1170 c          1 TRL       0.583900
      3 C27          1.8920     0.4940     2.3370 c3         1 TRL      -0.179700
      4 C3           2.4570     1.7690     1.6510 c3         1 TRL      -0.063400
      5 C4           1.7320     3.0730     2.0450 c3         1 TRL      -0.087100
      6 C8           0.4260     0.1080     1.9540 c5         1 TRL       0.108700
      7 N10          0.2680    -0.5510     0.6180 n          1 TRL      -0.408800
      8 C9          -0.4770    -1.8310     0.7540 c5         1 TRL       0.095000
      9 C12         -1.2690    -1.5890     2.0570 c5         1 TRL      -0.128400
     10 C14         -0.1480    -0.9820     2.9250 c5         1 TRL       0.200500
     11 N3          -0.7520    -0.2950     4.0970 n7         1 TRL      -0.895300
     12 S1          -0.8200    -1.2010     5.4930 s6         1 TRL       1.194100
     13 O4          -1.3310    -2.5240     5.1340 o          1 TRL      -0.540000
     14 O5          -1.5210    -0.3660     6.4680 o          1 TRL      -0.540000
     15 C1           0.8940    -1.3020     5.9690 c3         1 TRL      -0.345100
     16 C2           0.1280     0.2240    -0.5620 c          1 TRL       0.596100
     17 O2           0.0390     1.4450    -0.4900 o          1 TRL      -0.604100
     18 C5           0.1470    -0.4890    -1.9620 c3         1 TRL       0.063700
     19 C6           1.5180    -1.1390    -2.3500 c3         1 TRL      -0.078700
     20 C13          2.7090    -0.1570    -2.2360 c3         1 TRL      -0.088600
     21 C7           1.8130    -2.4660    -1.6150 c3         1 TRL      -0.088600
     22 N1          -0.2830     0.4700    -3.0040 ns         1 TRL      -0.504900
     23 C11         -0.7990     0.1400    -4.2220 c          1 TRL       0.653100
     24 O3          -0.9910    -1.0010    -4.6070 o          1 TRL      -0.558000
     25 O6          -1.0690     1.3000    -4.8930 os         1 TRL      -0.475100
     26 C15         -1.6290     1.3160    -6.2270 c3         1 TRL       0.225000
     27 C21         -1.7500     2.8170    -6.5720 c3         1 TRL      -0.109100
     28 C26         -0.6500     0.6250    -7.2110 c3         1 TRL      -0.109100
     29 C25         -3.0350     0.6630    -6.2100 c3         1 TRL      -0.109100
     30 H28          3.0290    -0.9700     1.0580 h4         1 TRL      -0.007800
     31 H27          1.9030     0.6930     3.4160 hc         1 TRL       0.074700
     32 HC31         2.4410     1.6550     0.5620 hc         1 TRL       0.048200
     33 HC32         3.5130     1.8780     1.9290 hc         1 TRL       0.048200
     34 HC41         2.2270     3.9360     1.5830 hc         1 TRL       0.037367
     35 HC42         0.6880     3.0680     1.7110 hc         1 TRL       0.037367
     36 HC43         1.7470     3.2130     3.1320 hc         1 TRL       0.037367
     37 HC8         -0.2050     1.0050     2.0100 h1         1 TRL       0.086700
     38 HC91         0.2110    -2.6820     0.8530 h1         1 TRL       0.066700
     39 HC92        -1.1600    -2.0370    -0.0800 h1         1 TRL       0.066700
     40 H121        -1.6810    -2.5180     2.4660 hc         1 TRL       0.074200
     41 H122        -2.1010    -0.8930     1.8910 hc         1 TRL       0.074200
     42 H14          0.6130    -1.7300     3.1890 h1         1 TRL       0.087700
     43 HN3         -1.7420    -0.1130     3.9400 hn         1 TRL       0.495000
     44 HC11         0.9310    -1.7960     6.9450 h1         1 TRL       0.105700
     45 HC12         1.4300    -1.8850     5.2150 h1         1 TRL       0.105700
     46 HC13         1.2770    -0.2790     6.0290 h1         1 TRL       0.105700
     47 HC5         -0.6090    -1.2820    -1.9380 h1         1 TRL       0.084700
     48 HC6          1.4460    -1.4120    -3.4110 hc         1 TRL       0.068700
     49 H131         3.6220    -0.6110    -2.6400 hc         1 TRL       0.037867
     50 H132         2.5150     0.7640    -2.7990 hc         1 TRL       0.037867
     51 H133         2.9010     0.1120    -1.1910 hc         1 TRL       0.037867
     52 HC71         2.0460    -2.2970    -0.5590 hc         1 TRL       0.037867
     53 HC72         0.9570    -3.1480    -1.6810 hc         1 TRL       0.037867
     54 HC73         2.6760    -2.9690    -2.0680 hc         1 TRL       0.037867
     55 HN1         -0.2130     1.4610    -2.8080 hn         1 TRL       0.348500
     56 H211        -2.1690     2.9540    -7.5760 hc         1 TRL       0.049811
     57 H212        -2.4060     3.3290    -5.8570 hc         1 TRL       0.049811
     58 H213        -0.7680     3.3040    -6.5440 hc         1 TRL       0.049811
     59 H261         0.3700     1.0020    -7.0740 hc         1 TRL       0.049811
     60 H262        -0.6370    -0.4620    -7.0810 hc         1 TRL       0.049811
     61 H263        -0.9480     0.8240    -8.2470 hc         1 TRL       0.049811
     62 H251        -3.6410     1.0640    -5.3890 hc         1 TRL       0.049811
     63 H252        -3.5620     0.8670    -7.1500 hc         1 TRL       0.049811
     64 H253        -2.9810    -0.4260    -6.1010 hc         1 TRL       0.049811
@<TRIPOS>BOND
     1     1     2 2   
     2     2     3 1   
     3     2    30 1   
     4     3     4 1   
     5     3     6 1   
     6     3    31 1   
     7     4     5 1   
     8     4    32 1   
     9     4    33 1   
    10     5    34 1   
    11     5    35 1   
    12     5    36 1   
    13     6     7 1   
    14     6    10 1   
    15     6    37 1   
    16     7     8 1   
    17     7    16 1   
    18     8     9 1   
    19     8    38 1   
    20     8    39 1   
    21     9    10 1   
    22     9    40 1   
    23     9    41 1   
    24    10    11 1   
    25    10    42 1   
    26    11    12 1   
    27    11    43 1   
    28    12    13 2   
    29    12    14 2   
    30    12    15 1   
    31    15    44 1   
    32    15    45 1   
    33    15    46 1   
    34    16    17 2   
    35    16    18 1   
    36    18    19 1   
    37    18    22 1   
    38    18    47 1   
    39    19    20 1   
    40    19    21 1   
    41    19    48 1   
    42    20    49 1   
    43    20    50 1   
    44    20    51 1   
    45    21    52 1   
    46    21    53 1   
    47    21    54 1   
    48    22    23 1   
    49    22    55 1   
    50    23    24 2   
    51    23    25 1   
    52    25    26 1   
    53    26    27 1   
    54    26    28 1   
    55    26    29 1   
    56    27    56 1   
    57    27    57 1   
    58    27    58 1   
    59    28    59 1   
    60    28    60 1   
    61    28    61 1   
    62    29    62 1   
    63    29    63 1   
    64    29    64 1   
@<TRIPOS>SUBSTRUCTURE
     1 TRL         1 TEMP              0 ****  ****    0 ROOT
