@<TRIPOS>MOLECULE
TRM
   17    18     1     0     0
SMALL
bcc


@<TRIPOS>ATOM
      1 NG           1.1410    -0.0150     0.4390 nc         1 TRM      -0.586100
      2 CD1          0.0470    -0.0060     1.1560 cd         1 TRM       0.370800
      3 NE1         -1.0760     0.0020     0.3920 na         1 TRM      -0.244300
      4 CE2         -0.6900    -0.0010    -0.9160 ca         1 TRM      -0.108200
      5 CZ2         -1.3950     0.0040    -2.1160 ca         1 TRM      -0.135000
      6 CH2         -0.6470    -0.0010    -3.2790 ca         1 TRM      -0.149000
      7 CZ3          0.7580    -0.0120    -3.2480 ca         1 TRM      -0.178000
      8 CE3          1.4520    -0.0170    -2.0530 ca         1 TRM      -0.081000
      9 CD2          0.7170    -0.0110    -0.8660 ca         1 TRM       0.069400
     10 C           -0.0520    -0.0070     2.6690 c          1 TRM       0.862300
     11 O           -1.2150    -0.0000     3.1140 o          1 TRM      -0.797800
     12 OXT          1.0200    -0.0130     3.2880 o          1 TRM      -0.797800
     13 HE11        -2.0150     0.0110     0.7570 hn         1 TRM       0.315700
     14 HZ21        -2.4770     0.0120    -2.1420 ha         1 TRM       0.117000
     15 HH21        -1.1540     0.0030    -4.2350 ha         1 TRM       0.105000
     16 HZ31         1.3040    -0.0170    -4.1830 ha         1 TRM       0.107000
     17 HE31         2.5350    -0.0250    -2.0350 ha         1 TRM       0.130000
@<TRIPOS>BOND
     1     1     2 2   
     2     1     9 1   
     3     2     3 1   
     4     2    10 1   
     5     3     4 1   
     6     3    13 1   
     7     4     5 ar  
     8     4     9 ar  
     9     5     6 ar  
    10     5    14 1   
    11     6     7 ar  
    12     6    15 1   
    13     7     8 ar  
    14     7    16 1   
    15     8     9 ar  
    16     8    17 1   
    17    10    11 1   
    18    10    12 1   
@<TRIPOS>SUBSTRUCTURE
     1 TRM         1 TEMP              0 ****  ****    0 ROOT
