@<TRIPOS>MOLECULE
TRN
   25    26     1     0     0
SMALL
No Charge or Current Charge


@<TRIPOS>ATOM
      1 N           52.9460    78.9650    15.0280 n8         1 TRN      -0.860800
      2 CA          52.0340    78.5960    13.8790 c3         1 TRN       0.020500
      3 CB          52.6730    79.0130    12.5300 c3         1 TRN       0.008800
      4 CG          51.7120    78.9520    11.3690 cc         1 TRN      -0.068400
      5 CD1         50.8110    79.9320    10.9810 cd         1 TRN      -0.133100
      6 CD2         51.5240    77.8710    10.4410 ca         1 TRN      -0.174100
      7 NE1         50.0820    79.4810     9.8560 na         1 TRN      -0.289100
      8 CE2         50.5390    78.2170     9.5450 ca         1 TRN       0.431800
      9 CE3         52.1840    76.6380    10.3580 ca         1 TRN      -0.004000
     10 NZ2         50.1390    77.4090     8.5440 nb         1 TRN      -0.716000
     11 CH2         50.7540    76.2070     8.4400 ca         1 TRN       0.409200
     12 CZ3         51.7740    75.7870     9.3170 ca         1 TRN      -0.304300
     13 C           51.4990    77.0970    13.8270 c          1 TRN       0.930600
     14 O           50.3020    76.8970    14.0170 o          1 TRN      -0.829300
     15 OXT         52.3070    76.1750    13.7440 o          1 TRN      -0.829300
     16 H           52.4550    78.8090    15.9150 hn         1 TRN       0.306800
     17 H2          53.1310    79.9720    15.0060 hn         1 TRN       0.306800
     18 HA          51.1480    79.2320    14.0110 h1         1 TRN       0.001700
     19 HB2         53.0540    80.0380    12.6140 hc         1 TRN       0.032700
     20 HB3         53.5460    78.3800    12.3270 hc         1 TRN       0.032700
     21 HD1         50.6340    80.9070    11.4230 h4         1 TRN       0.149000
     22 HE1         49.3580    79.9810     9.3590 hn         1 TRN       0.290700
     23 HE3         52.9710    76.3540    11.0560 ha         1 TRN       0.167000
     24 HH2         50.4220    75.5620     7.6270 h4         1 TRN      -0.005900
     25 HZ3         52.2340    74.8120     9.1850 ha         1 TRN       0.125000
@<TRIPOS>BOND
     1     1     2 1   
     2     1    16 1   
     3     1    17 1   
     4     2     3 1   
     5     2    13 1   
     6     2    18 1   
     7     3     4 1   
     8     3    19 1   
     9     3    20 1   
    10     4     5 2   
    11     4     6 1   
    12     5     7 1   
    13     5    21 1   
    14     6     8 ar  
    15     6     9 ar  
    16     7     8 1   
    17     7    22 1   
    18     8    10 ar  
    19     9    12 ar  
    20     9    23 1   
    21    10    11 ar  
    22    11    12 ar  
    23    11    24 1   
    24    12    25 1   
    25    13    14 1   
    26    13    15 1   
@<TRIPOS>SUBSTRUCTURE
     1 TRN         1 TEMP              0 ****  ****    0 ROOT
