@<TRIPOS>MOLECULE
TRN
   25    26     1     0     0
SMALL
bcc


@<TRIPOS>ATOM
      1 N           52.9910    78.8550    14.9450 n8         1 TRN      -0.860800
      2 CA          51.9840    78.6860    13.9020 c3         1 TRN       0.020500
      3 CB          52.6240    79.0700    12.5600 c3         1 TRN       0.008800
      4 CG          51.7000    78.9540    11.3930 cc         1 TRN      -0.068400
      5 CD1         50.7820    79.8730    10.9680 cd         1 TRN      -0.133100
      6 CD2         51.5720    77.8420    10.5000 ca         1 TRN      -0.174100
      7 NE1         50.0980    79.4030     9.8760 na         1 TRN      -0.289100
      8 CE2         50.5640    78.1660     9.5610 ca         1 TRN       0.431800
      9 CE3         52.1900    76.6030    10.3550 ca         1 TRN      -0.004000
     10 NZ2         50.1510    77.4080     8.5570 nb         1 TRN      -0.716000
     11 CH2         50.7650    76.2390     8.4460 ca         1 TRN       0.409200
     12 CZ3         51.7760    75.7980     9.3070 ca         1 TRN      -0.304300
     13 C           51.4730    77.2250    13.8540 c          1 TRN       0.930600
     14 O           50.2360    77.0690    13.8260 o          1 TRN      -0.829300
     15 OXT         52.3410    76.3300    13.8310 o          1 TRN      -0.829300
     16 H           52.6000    78.5930    15.8420 hn         1 TRN       0.306800
     17 H2          53.2120    79.8400    15.0280 hn         1 TRN       0.306800
     18 HA          51.1140    79.3420    14.0490 h1         1 TRN       0.001700
     19 HB2         52.9940    80.0970    12.6340 hc         1 TRN       0.032700
     20 HB3         53.5010    78.4370    12.4050 hc         1 TRN       0.032700
     21 HD1         50.5610    80.8500    11.3680 h4         1 TRN       0.149000
     22 HE1         49.3800    79.9010     9.3760 hn         1 TRN       0.290700
     23 HE3         52.9590    76.2750    11.0420 ha         1 TRN       0.167000
     24 HH2         50.4430    75.6030     7.6290 h4         1 TRN      -0.005900
     25 HZ3         52.2220    74.8260     9.1450 ha         1 TRN       0.125000
@<TRIPOS>BOND
     1     1     2 1   
     2     1    16 1   
     3     1    17 1   
     4     2     3 1   
     5     2    13 1   
     6     2    18 1   
     7     3     4 1   
     8     3    19 1   
     9     3    20 1   
    10     4     5 2   
    11     4     6 1   
    12     5     7 1   
    13     5    21 1   
    14     6     8 ar  
    15     6     9 ar  
    16     7     8 1   
    17     7    22 1   
    18     8    10 ar  
    19     9    12 ar  
    20     9    23 1   
    21    10    11 ar  
    22    11    12 ar  
    23    11    24 1   
    24    12    25 1   
    25    13    14 1   
    26    13    15 1   
@<TRIPOS>SUBSTRUCTURE
     1 TRN         1 TEMP              0 ****  ****    0 ROOT
