@<TRIPOS>MOLECULE
TRO
   27    28     1     0     0
SMALL
bcc


@<TRIPOS>ATOM
      1 N            8.6850    15.6650   115.6450 n8         1 TRO      -0.890800
      2 CA           9.4310    16.3710   114.6160 c3         1 TRO       0.029500
      3 CB           8.4860    16.8050   113.4900 c3         1 TRO       0.013800
      4 CG           7.7480    15.6770   112.8430 cc         1 TRO      -0.113400
      5 CD1          8.1540    14.9430   111.7590 cd         1 TRO       0.102000
      6 OD1          9.2990    15.0940   111.0880 oh         1 TRO      -0.461100
      7 NE1          7.2220    13.9980   111.4270 na         1 TRO      -0.240400
      8 CE2          6.1700    14.0930   112.3010 ca         1 TRO      -0.058200
      9 CZ2          4.9900    13.3630   112.3650 ca         1 TRO      -0.163000
     10 CH2          4.0860    13.6910   113.3640 ca         1 TRO      -0.129000
     11 CZ3          4.3620    14.7200   114.2730 ca         1 TRO      -0.177000
     12 CE3          5.5430    15.4400   114.2050 ca         1 TRO      -0.057000
     13 CD2          6.4720    15.1350   113.2060 ca         1 TRO      -0.062800
     14 C           10.2070    17.5720   115.2160 c          1 TRO       0.931600
     15 O           10.3680    17.5860   116.4530 o          1 TRO      -0.837800
     16 OXT         10.6430    18.4100   114.4000 o          1 TRO      -0.837800
     17 H            9.2800    15.5500   116.4540 hn         1 TRO       0.324800
     18 H2           8.4450    14.7380   115.3170 hn         1 TRO       0.324800
     19 HA          10.2010    15.7290   114.1510 h1         1 TRO      -0.003300
     20 HB2          7.7620    17.5180   113.8990 hc         1 TRO       0.057700
     21 HB3          9.0650    17.3490   112.7430 hc         1 TRO       0.057700
     22 HD1          9.3230    14.5620   110.2840 ho         1 TRO       0.407000
     23 HE1          7.3080    13.3220   110.6840 hn         1 TRO       0.280700
     24 HZ2          4.7820    12.5680   111.6590 ha         1 TRO       0.113000
     25 HH2          3.1570    13.1410   113.4420 ha         1 TRO       0.111000
     26 HZ3          3.6390    14.9530   115.0440 ha         1 TRO       0.118000
     27 HE3          5.7500    16.2240   114.9230 ha         1 TRO       0.158000
@<TRIPOS>BOND
     1     1     2 1   
     2     1    17 1   
     3     1    18 1   
     4     2     3 1   
     5     2    14 1   
     6     2    19 1   
     7     3     4 1   
     8     3    20 1   
     9     3    21 1   
    10     4     5 2   
    11     4    13 1   
    12     5     6 1   
    13     5     7 1   
    14     6    22 1   
    15     7     8 1   
    16     7    23 1   
    17     8     9 ar  
    18     8    13 ar  
    19     9    10 ar  
    20     9    24 1   
    21    10    11 ar  
    22    10    25 1   
    23    11    12 ar  
    24    11    26 1   
    25    12    13 ar  
    26    12    27 1   
    27    14    15 1   
    28    14    16 1   
@<TRIPOS>SUBSTRUCTURE
     1 TRO         1 TEMP              0 ****  ****    0 ROOT
