@<TRIPOS>MOLECULE
TRO
   27    28     1     0     0
SMALL
No Charge or Current Charge


@<TRIPOS>ATOM
      1 N            8.5320    15.7560   115.7870 n8         1 TRO      -0.890800
      2 CA           9.3570    16.4200   114.7070 c3         1 TRO       0.029500
      3 CB           8.4640    16.8350   113.5040 c3         1 TRO       0.013800
      4 CG           7.7630    15.6770   112.8310 cc         1 TRO      -0.113400
      5 CD1          8.2170    14.9160   111.7590 cd         1 TRO       0.102000
      6 OD1          9.3830    15.0530   111.0970 oh         1 TRO      -0.461100
      7 NE1          7.2830    13.9210   111.4160 na         1 TRO      -0.240400
      8 CE2          6.2320    14.0850   112.3000 ca         1 TRO      -0.058200
      9 CZ2          5.0470    13.3410   112.3660 ca         1 TRO      -0.163000
     10 CH2          4.0970    13.6870   113.3510 ca         1 TRO      -0.129000
     11 CZ3          4.3490    14.7600   114.2390 ca         1 TRO      -0.177000
     12 CE3          5.5520    15.4940   114.1490 ca         1 TRO      -0.057000
     13 CD2          6.4760    15.1220   113.1610 ca         1 TRO      -0.062800
     14 C           10.3150    17.6120   115.1630 c          1 TRO       0.931600
     15 O           11.4340    17.3320   115.5850 o          1 TRO      -0.837800
     16 OXT          9.9220    18.7740   115.0830 o          1 TRO      -0.837800
     17 H            9.1590    15.2960   116.4550 hn         1 TRO       0.324800
     18 H2           7.9930    14.9930   115.3650 hn         1 TRO       0.324800
     19 HA          10.0230    15.6320   114.3310 h1         1 TRO      -0.003300
     20 HB2          7.7260    17.5750   113.8360 hc         1 TRO       0.057700
     21 HB3          9.0920    17.3460   112.7640 hc         1 TRO       0.057700
     22 HD1          9.4060    14.3670   110.3990 ho         1 TRO       0.407000
     23 HE1          7.3600    13.2310   110.6790 hn         1 TRO       0.280700
     24 HZ2          4.8620    12.5200   111.6780 ha         1 TRO       0.113000
     25 HH2          3.1670    13.1270   113.4270 ha         1 TRO       0.111000
     26 HZ3          3.6120    15.0220   114.9950 ha         1 TRO       0.118000
     27 HE3          5.7550    16.3210   114.8260 ha         1 TRO       0.158000
@<TRIPOS>BOND
     1     1     2 1   
     2     1    17 1   
     3     1    18 1   
     4     2     3 1   
     5     2    14 1   
     6     2    19 1   
     7     3     4 1   
     8     3    20 1   
     9     3    21 1   
    10     4     5 2   
    11     4    13 1   
    12     5     6 1   
    13     5     7 1   
    14     6    22 1   
    15     7     8 1   
    16     7    23 1   
    17     8     9 ar  
    18     8    13 ar  
    19     9    10 ar  
    20     9    24 1   
    21    10    11 ar  
    22    10    25 1   
    23    11    12 ar  
    24    11    26 1   
    25    12    13 ar  
    26    12    27 1   
    27    14    15 1   
    28    14    16 1   
@<TRIPOS>SUBSTRUCTURE
     1 TRO         1 TEMP              0 ****  ****    0 ROOT
