@<TRIPOS>MOLECULE
TRQ
   26    27     1     0     0
SMALL
bcc


@<TRIPOS>ATOM
      1 N           80.7790    11.7110    17.0880 n8         1 TRQ      -0.877800
      2 CA          82.1780    11.9830    17.3700 c3         1 TRQ       0.029500
      3 C           82.4100    11.8930    18.8970 c          1 TRQ       0.939600
      4 O           81.6630    12.6100    19.5960 o          1 TRQ      -0.832800
      5 OXT         83.3170    11.1400    19.2970 o          1 TRQ      -0.832800
      6 CB          82.6710    13.3620    16.8700 c3         1 TRQ      -0.051100
      7 CG          82.5520    13.5190    15.3940 cc         1 TRQ      -0.085300
      8 CD1         83.5110    13.1670    14.4500 cd         1 TRQ      -0.147300
      9 NE1         83.0310    13.3950    13.2150 na         1 TRQ      -0.102100
     10 CE2         81.7690    13.8910    13.3030 cd         1 TRQ      -0.231900
     11 CZ2         80.8900    14.2740    12.2430 c          1 TRQ       0.511700
     12 CH2         79.5160    14.8150    12.7270 c          1 TRQ       0.489300
     13 CZ3         79.2450    14.8820    14.1640 cd         1 TRQ      -0.295200
     14 CE3         80.1590    14.4870    15.0680 cc         1 TRQ       0.025800
     15 CD2         81.4450    13.9780    14.6520 cc         1 TRQ      -0.110800
     16 O6          78.7180    15.1680    11.8890 o          1 TRQ      -0.496100
     17 O7          81.1290    14.2110    11.0540 o          1 TRQ      -0.513100
     18 H           80.5860    11.8060    16.0980 hn         1 TRQ       0.321800
     19 H2          80.2070    12.3940    17.5700 hn         1 TRQ       0.321800
     20 HA          82.7770    11.2150    16.8720 h1         1 TRQ       0.044700
     21 HB2         82.0970    14.1410    17.3780 hc         1 TRQ       0.057200
     22 HB3         83.7150    13.4960    17.1670 hc         1 TRQ       0.057200
     23 HD1         84.5050    12.7750    14.5990 h4         1 TRQ       0.172000
     24 HE1         83.5360    13.2310    12.3560 hn         1 TRQ       0.303700
     25 HZ3         78.2800    15.2650    14.4700 ha         1 TRQ       0.149000
     26 HE3         79.9360    14.5500    16.1260 ha         1 TRQ       0.153000
@<TRIPOS>BOND
     1     1     2 1   
     2     1    18 1   
     3     1    19 1   
     4     2     3 1   
     5     2     6 1   
     6     2    20 1   
     7     3     4 1   
     8     3     5 1   
     9     6     7 1   
    10     6    21 1   
    11     6    22 1   
    12     7     8 2   
    13     7    15 1   
    14     8     9 1   
    15     8    23 1   
    16     9    10 1   
    17     9    24 1   
    18    10    11 1   
    19    10    15 2   
    20    11    12 1   
    21    11    17 2   
    22    12    13 1   
    23    12    16 2   
    24    13    14 2   
    25    13    25 1   
    26    14    15 1   
    27    14    26 1   
@<TRIPOS>SUBSTRUCTURE
     1 TRQ         1 TEMP              0 ****  ****    0 ROOT
