@<TRIPOS>MOLECULE
TRQ
   26    27     1     0     0
SMALL
No Charge or Current Charge


@<TRIPOS>ATOM
      1 N           80.8180    11.5890    16.9770 n8         1 TRQ      -0.877800
      2 CA          82.1990    11.9940    17.4400 c3         1 TRQ       0.029500
      3 C           82.4920    11.9310    19.0030 c          1 TRQ       0.939600
      4 O           81.7970    12.5990    19.7650 o          1 TRQ      -0.832800
      5 OXT         83.3580    11.1620    19.4100 o          1 TRQ      -0.832800
      6 CB          82.5690    13.3890    16.8690 c3         1 TRQ      -0.051100
      7 CG          82.5270    13.4620    15.3600 cc         1 TRQ      -0.085300
      8 CD1         83.5120    13.0740    14.4850 cd         1 TRQ      -0.147300
      9 NE1         83.0420    13.3290    13.1890 na         1 TRQ      -0.102100
     10 CE2         81.7610    13.8840    13.2620 cd         1 TRQ      -0.231900
     11 CZ2         80.8480    14.3270    12.1820 c          1 TRQ       0.511700
     12 CH2         79.4600    14.9120    12.6900 c          1 TRQ       0.489300
     13 CZ3         79.2520    14.9430    14.1600 cd         1 TRQ      -0.295200
     14 CE3         80.1970    14.4930    15.0640 cc         1 TRQ       0.025800
     15 CD2         81.4500    13.9640    14.5900 cc         1 TRQ      -0.110800
     16 O6          78.5980    15.3200    11.9130 o          1 TRQ      -0.496100
     17 O7          81.1480    14.2460    10.9900 o          1 TRQ      -0.513100
     18 H           80.7250    11.8320    15.9860 hn         1 TRQ       0.321800
     19 H2          80.1230    12.1740    17.4530 hn         1 TRQ       0.321800
     20 HA          82.8930    11.2790    16.9800 h1         1 TRQ       0.044700
     21 HB2         81.9240    14.1540    17.3150 hc         1 TRQ       0.057200
     22 HB3         83.5860    13.6350    17.2010 hc         1 TRQ       0.057200
     23 HD1         84.4890    12.6440    14.6790 h4         1 TRQ       0.172000
     24 HE1         83.5530    13.1430    12.3310 hn         1 TRQ       0.303700
     25 HZ3         78.3000    15.3450    14.4870 ha         1 TRQ       0.149000
     26 HE3         80.0000    14.5360    16.1310 ha         1 TRQ       0.153000
@<TRIPOS>BOND
     1     1     2 1   
     2     1    18 1   
     3     1    19 1   
     4     2     3 1   
     5     2     6 1   
     6     2    20 1   
     7     3     4 1   
     8     3     5 1   
     9     6     7 1   
    10     6    21 1   
    11     6    22 1   
    12     7     8 2   
    13     7    15 1   
    14     8     9 1   
    15     8    23 1   
    16     9    10 1   
    17     9    24 1   
    18    10    11 1   
    19    10    15 2   
    20    11    12 1   
    21    11    17 2   
    22    12    13 1   
    23    12    16 2   
    24    13    14 2   
    25    13    25 1   
    26    14    15 1   
    27    14    26 1   
@<TRIPOS>SUBSTRUCTURE
     1 TRQ         1 TEMP              0 ****  ****    0 ROOT
