@<TRIPOS>MOLECULE
TRR
   40    41     1     0     0
SMALL
No Charge or Current Charge


@<TRIPOS>ATOM
      1 N1           4.1330     1.6970    -0.6920 na         1 TRR      -0.420200
      2 C2           4.4170     0.9580     0.4300 ca         1 TRR       0.748000
      3 N2           5.4510     1.2960     1.2050 nv         1 TRR      -0.602500
      4 N3           3.7630    -0.1070     0.8750 nb         1 TRR      -0.846000
      5 C4           2.7400    -0.4780     0.1320 ca         1 TRR       0.741900
      6 N4           2.1650    -1.5340     0.6860 nv         1 TRR      -0.996900
      7 C5           2.3120     0.1580    -1.0450 ca         1 TRR      -0.206300
      8 C6           3.0450     1.2820    -1.4610 ca         1 TRR       0.042700
      9 C7           1.1080    -0.3320    -1.8510 c3         1 TRR       0.019200
     10 C11         -0.1930    -0.2080    -1.0630 ca         1 TRR      -0.052300
     11 C12         -0.5940     1.0390    -0.5670 ca         1 TRR      -0.237500
     12 C13         -1.7900     1.1680     0.1710 ca         1 TRR       0.170600
     13 C14         -2.6050     0.0380     0.4190 ca         1 TRR       0.045100
     14 C15         -2.1990    -1.2350    -0.0890 ca         1 TRR       0.170600
     15 C16         -0.9920    -1.3360    -0.8230 ca         1 TRR      -0.237500
     16 O13         -2.1980     2.3950     0.6700 os         1 TRR      -0.309100
     17 O14         -3.7690     0.2650     1.1570 os         1 TRR      -0.317100
     18 O15         -2.9730    -2.3630     0.1320 os         1 TRR      -0.309100
     19 C17         -1.4410     3.6030     0.4780 c3         1 TRR       0.142900
     20 C18         -4.7310    -0.7410     1.5170 c3         1 TRR       0.145900
     21 C19         -2.6270    -3.6680    -0.3650 c3         1 TRR       0.142900
     22 H1           4.6840     2.5110    -0.9240 hn         1 TRR       0.379000
     23 H21          6.1680     1.8950     0.8280 hn         1 TRR       0.379000
     24 H22          5.7090     0.6350     1.9210 hn         1 TRR       0.379000
     25 H41          2.4840    -1.6740     1.6340 hn         1 TRR       0.534000
     26 H42          1.1660    -1.6050     0.5520 hn         1 TRR       0.534000
     27 H6           2.7940     1.8490    -2.3620 h4         1 TRR       0.175000
     28 H71          1.2750    -1.3700    -2.1640 hc         1 TRR       0.076700
     29 H72          1.0160     0.2380    -2.7840 hc         1 TRR       0.076700
     30 H12          0.0370     1.9010    -0.7640 ha         1 TRR       0.116500
     31 H16         -0.6650    -2.2910    -1.2240 ha         1 TRR       0.116500
     32 H171        -0.4410     3.5120     0.9200 h1         1 TRR       0.046367
     33 H172        -1.3360     3.8320    -0.5900 h1         1 TRR       0.046367
     34 H173        -1.9490     4.4490     0.9580 h1         1 TRR       0.046367
     35 H181        -5.5470    -0.2910     2.0960 h1         1 TRR       0.039700
     36 H182        -5.1710    -1.2020     0.6230 h1         1 TRR       0.039700
     37 H183        -4.2720    -1.5210     2.1380 h1         1 TRR       0.039700
     38 H191        -3.3890    -4.4000    -0.0690 h1         1 TRR       0.046367
     39 H192        -2.5660    -3.6660    -1.4600 h1         1 TRR       0.046367
     40 H193        -1.6640    -4.0000     0.0440 h1         1 TRR       0.046367
@<TRIPOS>BOND
     1     1     2 1   
     2     1     8 2   
     3     1    22 1   
     4     2     3 1   
     5     2     4 ar  
     6     3    23 1   
     7     3    24 1   
     8     4     5 ar  
     9     5     6 1   
    10     5     7 ar  
    11     6    25 1   
    12     6    26 1   
    13     7     8 ar  
    14     7     9 1   
    15     8    27 1   
    16     9    10 1   
    17     9    28 1   
    18     9    29 1   
    19    10    11 ar  
    20    10    15 ar  
    21    11    12 ar  
    22    11    30 1   
    23    12    13 ar  
    24    12    16 1   
    25    13    14 ar  
    26    13    17 1   
    27    14    15 ar  
    28    14    18 1   
    29    15    31 1   
    30    16    19 1   
    31    17    20 1   
    32    18    21 1   
    33    19    32 1   
    34    19    33 1   
    35    19    34 1   
    36    20    35 1   
    37    20    36 1   
    38    20    37 1   
    39    21    38 1   
    40    21    39 1   
    41    21    40 1   
@<TRIPOS>SUBSTRUCTURE
     1 TRR         1 TEMP              0 ****  ****    0 ROOT
