@<TRIPOS>MOLECULE
TRR
   40    41     1     0     0
SMALL
bcc


@<TRIPOS>ATOM
      1 N1           4.0480     1.5750    -0.5080 na         1 TRR      -0.369900
      2 C2           4.3300     0.9070     0.6340 ca         1 TRR       0.748000
      3 N2           5.3490     1.3140     1.3740 nv         1 TRR      -0.501900
      4 N3           3.6110    -0.1290     1.0150 nb         1 TRR      -0.846000
      5 C4           2.5900    -0.5310     0.2610 ca         1 TRR       0.807200
      6 N4           1.9050    -1.5790     0.6870 nv         1 TRR      -0.886500
      7 C5           2.2440     0.1260    -0.9710 ca         1 TRR      -0.271600
      8 C6           3.0200     1.1810    -1.2980 ca         1 TRR       0.024700
      9 C7           1.1170    -0.3350    -1.8470 c3         1 TRR       0.019200
     10 C11         -0.2350    -0.2450    -1.1780 ca         1 TRR      -0.052300
     11 C12         -0.6520     0.9620    -0.6310 ca         1 TRR      -0.255500
     12 C13         -1.8960     1.0490    -0.0120 ca         1 TRR       0.170600
     13 C14         -2.7210    -0.0780     0.0660 ca         1 TRR       0.045100
     14 C15         -2.2920    -1.2900    -0.4780 ca         1 TRR       0.170600
     15 C16         -1.0490    -1.3680    -1.1100 ca         1 TRR      -0.255500
     16 O13         -2.3940     2.1680     0.5380 os         1 TRR      -0.285900
     17 O14         -3.9410     0.0100     0.6580 os         1 TRR      -0.293900
     18 O15         -3.1430    -2.3200    -0.3480 os         1 TRR      -0.285900
     19 C17         -1.6350     3.3580     0.4550 c3         1 TRR       0.119700
     20 C18         -3.9300    -0.2690     2.0520 c3         1 TRR       0.122700
     21 C19         -2.7400    -3.5920    -0.8180 c3         1 TRR       0.119700
     22 H1           4.6070     2.3680    -0.7910 hn         1 TRR       0.328700
     23 H21          5.9320     2.0900     1.1090 hn         1 TRR       0.328700
     24 H22          5.5770     0.8170     2.2180 hn         1 TRR       0.328700
     25 H41          2.1500    -2.0140     1.5610 hn         1 TRR       0.478800
     26 H42          1.0730    -1.9050     0.2240 hn         1 TRR       0.478800
     27 H6           2.8730     1.7630    -2.1960 h4         1 TRR       0.193000
     28 H71          1.2990    -1.3620    -2.1750 hc         1 TRR       0.076700
     29 H72          1.1180     0.2750    -2.7540 hc         1 TRR       0.076700
     30 H12          0.0010     1.8240    -0.6900 ha         1 TRR       0.134500
     31 H16         -0.7100    -2.2950    -1.5540 ha         1 TRR       0.134500
     32 H171        -0.6880     3.2780     0.9950 h1         1 TRR       0.046367
     33 H172        -1.4300     3.6400    -0.5810 h1         1 TRR       0.046367
     34 H173        -2.2340     4.1370     0.9190 h1         1 TRR       0.046367
     35 H181        -4.9550    -0.1700     2.4070 h1         1 TRR       0.039700
     36 H182        -3.5840    -1.2840     2.2590 h1         1 TRR       0.039700
     37 H183        -3.3010     0.4360     2.6010 h1         1 TRR       0.039700
     38 H191        -3.5480    -4.2780    -0.5780 h1         1 TRR       0.046367
     39 H192        -2.5840    -3.5990    -1.8990 h1         1 TRR       0.046367
     40 H193        -1.8270    -3.9370    -0.3250 h1         1 TRR       0.046367
@<TRIPOS>BOND
     1     1     2 1   
     2     1     8 2   
     3     1    22 1   
     4     2     3 1   
     5     2     4 ar  
     6     3    23 1   
     7     3    24 1   
     8     4     5 ar  
     9     5     6 1   
    10     5     7 ar  
    11     6    25 1   
    12     6    26 1   
    13     7     8 ar  
    14     7     9 1   
    15     8    27 1   
    16     9    10 1   
    17     9    28 1   
    18     9    29 1   
    19    10    11 ar  
    20    10    15 ar  
    21    11    12 ar  
    22    11    30 1   
    23    12    13 ar  
    24    12    16 1   
    25    13    14 ar  
    26    13    17 1   
    27    14    15 ar  
    28    14    18 1   
    29    15    31 1   
    30    16    19 1   
    31    17    20 1   
    32    18    21 1   
    33    19    32 1   
    34    19    33 1   
    35    19    34 1   
    36    20    35 1   
    37    20    36 1   
    38    20    37 1   
    39    21    38 1   
    40    21    39 1   
    41    21    40 1   
@<TRIPOS>SUBSTRUCTURE
     1 TRR         1 TEMP              0 ****  ****    0 ROOT
