@<TRIPOS>MOLECULE
TRS
   20    19     1     0     0
SMALL
No Charge or Current Charge


@<TRIPOS>ATOM
      1 C           63.3040    58.7990     2.9330 c3         1 TRS       0.122000
      2 C1          62.7960    60.2820     3.0010 c3         1 TRS       0.153600
      3 C2          62.9940    58.1800     1.5320 c3         1 TRS       0.153600
      4 C3          62.6270    57.9380     4.0470 c3         1 TRS       0.153600
      5 N           64.8010    58.7600     3.1470 nz         1 TRS      -0.975000
      6 O1          61.3700    60.3730     2.8020 oh         1 TRS      -0.667667
      7 O2          63.7360    58.8660     0.5010 oh         1 TRS      -0.667667
      8 O3          63.0290    58.4000     5.3550 oh         1 TRS      -0.667667
      9 H11         63.0690    60.7060     3.9770 h1         1 TRS       0.063200
     10 H12         63.3220    60.8730     2.2390 h1         1 TRS       0.063200
     11 H21         63.2630    57.1150     1.5430 h1         1 TRS       0.063200
     12 H22         61.9140    58.2380     1.3360 h1         1 TRS       0.063200
     13 H31         61.5350    57.9880     3.9370 h1         1 TRS       0.063200
     14 H32         62.9170    56.8870     3.9140 h1         1 TRS       0.063200
     15 HN1         65.1920    57.8090     3.1120 hn         1 TRS       0.515333
     16 HN2         65.3120    59.2950     2.4290 hn         1 TRS       0.515333
     17 HN3         65.0730    59.1370     4.0660 hn         1 TRS       0.515333
     18 HO1         61.1280    61.3260     2.8590 ho         1 TRS       0.491000
     19 HO2         63.4710    58.4710    -0.3620 ho         1 TRS       0.491000
     20 HO3         62.5420    57.8570     6.0180 ho         1 TRS       0.491000
@<TRIPOS>BOND
     1     1     2 1   
     2     1     3 1   
     3     1     4 1   
     4     1     5 1   
     5     2     6 1   
     6     2     9 1   
     7     2    10 1   
     8     3     7 1   
     9     3    11 1   
    10     3    12 1   
    11     4     8 1   
    12     4    13 1   
    13     4    14 1   
    14     5    15 1   
    15     5    16 1   
    16     5    17 1   
    17     6    18 1   
    18     7    19 1   
    19     8    20 1   
@<TRIPOS>SUBSTRUCTURE
     1 TRS         1 TEMP              0 ****  ****    0 ROOT
