@<TRIPOS>MOLECULE
TRS
   20    19     1     0     0
SMALL
abcg2


@<TRIPOS>ATOM
      1 C           63.2450    58.8060     2.9220 c3         1 TRS       0.122000
      2 C1          62.8370    60.2820     3.0010 c3         1 TRS       0.153600
      3 C2          62.9600    58.1850     1.5580 c3         1 TRS       0.153600
      4 C3          62.5950    57.9600     4.0110 c3         1 TRS       0.153600
      5 N           64.7300    58.7660     3.1380 nz         1 TRS      -0.975000
      6 O1          61.4560    60.3480     2.7770 oh         1 TRS      -0.667667
      7 O2          63.6220    58.9390     0.5780 oh         1 TRS      -0.667667
      8 O3          62.9630    58.4840     5.2600 oh         1 TRS      -0.667667
      9 H11         63.1150    60.6790     3.9850 h1         1 TRS       0.063200
     10 H12         63.4030    60.8550     2.2560 h1         1 TRS       0.063200
     11 H21         63.3040    57.1430     1.5710 h1         1 TRS       0.063200
     12 H22         61.8760    58.1620     1.4090 h1         1 TRS       0.063200
     13 H31         61.5120    57.9720     3.8540 h1         1 TRS       0.063200
     14 H32         62.9270    56.9210     3.8930 h1         1 TRS       0.063200
     15 HN1         65.0940    57.8110     3.1050 hn         1 TRS       0.515333
     16 HN2         65.2300    59.2970     2.4220 hn         1 TRS       0.515333
     17 HN3         64.9880    59.1480     4.0490 hn         1 TRS       0.515333
     18 HO1         61.1720    61.2590     2.8990 ho         1 TRS       0.491000
     19 HO2         63.6280    58.4400    -0.2450 ho         1 TRS       0.491000
     20 HO3         62.7380    57.8450     5.9430 ho         1 TRS       0.491000
@<TRIPOS>BOND
     1     1     2 1   
     2     1     3 1   
     3     1     4 1   
     4     1     5 1   
     5     2     6 1   
     6     2     9 1   
     7     2    10 1   
     8     3     7 1   
     9     3    11 1   
    10     3    12 1   
    11     4     8 1   
    12     4    13 1   
    13     4    14 1   
    14     5    15 1   
    15     5    16 1   
    16     5    17 1   
    17     6    18 1   
    18     7    19 1   
    19     8    20 1   
@<TRIPOS>SUBSTRUCTURE
     1 TRS         1 TEMP              0 ****  ****    0 ROOT
