@<TRIPOS>MOLECULE
TRT
   61    61     1     0     0
SMALL
bcc


@<TRIPOS>ATOM
      1 C25          3.8100    -0.3290    -7.0710 c3         1 TRT       0.122700
      2 O24          2.4390    -0.0280    -7.0820 os         1 TRT      -0.396600
      3 C23          2.1270     1.0810    -6.2790 c3         1 TRT       0.135400
      4 C22          0.6440     1.3430    -6.3230 c3         1 TRT       0.138400
      5 O21         -0.0470     0.2800    -5.7170 os         1 TRT      -0.387600
      6 C20         -1.4370     0.4810    -5.6970 c3         1 TRT       0.139400
      7 C19         -2.1110    -0.6700    -4.9950 c3         1 TRT       0.138400
      8 O18         -1.6980    -0.7090    -3.6520 os         1 TRT      -0.386600
      9 C17         -2.3910    -1.6660    -2.8950 c3         1 TRT       0.137400
     10 C16         -1.8160    -1.7190    -1.5040 c3         1 TRT       0.141400
     11 O15         -2.0100    -0.4620    -0.8850 os         1 TRT      -0.311900
     12 C12         -1.5020    -0.2680     0.3500 ca         1 TRT       0.142100
     13 C13         -1.5960     1.0250     0.8680 ca         1 TRT      -0.190000
     14 C14         -1.1030     1.3090     2.1260 ca         1 TRT      -0.094000
     15 C11         -0.9090    -1.2520     1.1280 ca         1 TRT      -0.190000
     16 C10         -0.4200    -0.9410     2.3960 ca         1 TRT      -0.094000
     17 C9          -0.4920     0.3390     2.9320 ca         1 TRT      -0.106300
     18 C6           0.0150     0.7290     4.3310 c3         1 TRT       0.022300
     19 C8           0.9950     1.8990     4.1830 c3         1 TRT      -0.082100
     20 C7          -1.2140     1.1920     5.1310 c3         1 TRT      -0.082100
     21 C5           0.6800    -0.4950     4.9970 c3         1 TRT      -0.061400
     22 C1           1.5190    -0.4380     6.3000 c3         1 TRT      -0.038000
     23 C2           0.8540     0.2960     7.4650 c3         1 TRT      -0.084767
     24 C4           1.7080    -1.9030     6.7210 c3         1 TRT      -0.084767
     25 C3           2.9170     0.1430     6.0620 c3         1 TRT      -0.084767
     26 H251         3.9730    -1.1910    -7.7170 h1         1 TRT       0.026700
     27 H252         4.4190     0.5030    -7.4450 h1         1 TRT       0.026700
     28 H253         4.1700    -0.5790    -6.0650 h1         1 TRT       0.026700
     29 H231         2.4480     0.9200    -5.2390 h1         1 TRT       0.029700
     30 H232         2.6430     1.9850    -6.6330 h1         1 TRT       0.029700
     31 H221         0.4490     2.2890    -5.7980 h1         1 TRT       0.027200
     32 H222         0.3180     1.4850    -7.3640 h1         1 TRT       0.027200
     33 H201        -1.6910     1.4240    -5.1930 h1         1 TRT       0.028200
     34 H202        -1.8430     0.5470    -6.7160 h1         1 TRT       0.028200
     35 H191        -3.1970    -0.5220    -5.0740 h1         1 TRT       0.029200
     36 H192        -1.8800    -1.6150    -5.5050 h1         1 TRT       0.029200
     37 H171        -3.4650    -1.4380    -2.8540 h1         1 TRT       0.030200
     38 H172        -2.2950    -2.6710    -3.3280 h1         1 TRT       0.030200
     39 H161        -2.3230    -2.5160    -0.9490 h1         1 TRT       0.042700
     40 H162        -0.7500    -1.9680    -1.5460 h1         1 TRT       0.042700
     41 H13         -2.0590     1.8060     0.2780 ha         1 TRT       0.137500
     42 H14         -1.2060     2.3260     2.4830 ha         1 TRT       0.127500
     43 H11         -0.8160    -2.2720     0.7790 ha         1 TRT       0.137500
     44 H10          0.0260    -1.7520     2.9540 ha         1 TRT       0.127500
     45 H8C1         1.9030     1.5930     3.6600 hc         1 TRT       0.034533
     46 H8C2         0.5540     2.7250     3.6250 hc         1 TRT       0.034533
     47 H8C3         1.2830     2.2970     5.1560 hc         1 TRT       0.034533
     48 H7C1        -1.9360     0.3800     5.2450 hc         1 TRT       0.034533
     49 H7C2        -0.9450     1.5420     6.1240 hc         1 TRT       0.034533
     50 H7C3        -1.7250     2.0160     4.6310 hc         1 TRT       0.034533
     51 H5C1        -0.1160    -1.2310     5.1610 hc         1 TRT       0.038200
     52 H5C2         1.3510    -0.9520     4.2610 hc         1 TRT       0.038200
     53 H2C1         1.4380     0.1490     8.3770 hc         1 TRT       0.032144
     54 H2C2         0.7860     1.3730     7.3030 hc         1 TRT       0.032144
     55 H2C3        -0.1530    -0.0790     7.6550 hc         1 TRT       0.032144
     56 H4C1         0.7560    -2.3720     6.9810 hc         1 TRT       0.032144
     57 H4C2         2.1580    -2.4910     5.9180 hc         1 TRT       0.032144
     58 H4C3         2.3650    -1.9770     7.5920 hc         1 TRT       0.032144
     59 H3C1         2.9040     1.2060     5.8320 hc         1 TRT       0.032144
     60 H3C2         3.5360     0.0130     6.9530 hc         1 TRT       0.032144
     61 H3C3         3.4180    -0.3690     5.2370 hc         1 TRT       0.032144
@<TRIPOS>BOND
     1     1     2 1   
     2     1    26 1   
     3     1    27 1   
     4     1    28 1   
     5     2     3 1   
     6     3     4 1   
     7     3    29 1   
     8     3    30 1   
     9     4     5 1   
    10     4    31 1   
    11     4    32 1   
    12     5     6 1   
    13     6     7 1   
    14     6    33 1   
    15     6    34 1   
    16     7     8 1   
    17     7    35 1   
    18     7    36 1   
    19     8     9 1   
    20     9    10 1   
    21     9    37 1   
    22     9    38 1   
    23    10    11 1   
    24    10    39 1   
    25    10    40 1   
    26    11    12 1   
    27    12    13 ar  
    28    12    15 ar  
    29    13    14 ar  
    30    13    41 1   
    31    14    17 ar  
    32    14    42 1   
    33    15    16 ar  
    34    15    43 1   
    35    16    17 ar  
    36    16    44 1   
    37    17    18 1   
    38    18    19 1   
    39    18    20 1   
    40    18    21 1   
    41    19    45 1   
    42    19    46 1   
    43    19    47 1   
    44    20    48 1   
    45    20    49 1   
    46    20    50 1   
    47    21    22 1   
    48    21    51 1   
    49    21    52 1   
    50    22    23 1   
    51    22    24 1   
    52    22    25 1   
    53    23    53 1   
    54    23    54 1   
    55    23    55 1   
    56    24    56 1   
    57    24    57 1   
    58    24    58 1   
    59    25    59 1   
    60    25    60 1   
    61    25    61 1   
@<TRIPOS>SUBSTRUCTURE
     1 TRT         1 TEMP              0 ****  ****    0 ROOT
