@<TRIPOS>MOLECULE
TRT
   61    61     1     0     0
SMALL
No Charge or Current Charge


@<TRIPOS>ATOM
      1 C25          3.4260    -1.0940    -8.3560 c3         1 TRT       0.145900
      2 O24          2.2360    -0.3640    -8.0150 os         1 TRT      -0.443000
      3 C23          2.4070     0.5880    -6.9440 c3         1 TRT       0.158600
      4 C22          1.0560     1.2950    -6.6740 c3         1 TRT       0.161600
      5 O21          0.1570     0.3650    -6.0400 os         1 TRT      -0.434000
      6 C20         -1.1460     0.9050    -5.7410 c3         1 TRT       0.162600
      7 C19         -2.0000    -0.1880    -5.0540 c3         1 TRT       0.161600
      8 O18         -1.5040    -0.4010    -3.7170 os         1 TRT      -0.433000
      9 C17         -2.2130    -1.4080    -2.9700 c3         1 TRT       0.160600
     10 C16         -1.5850    -1.5250    -1.5630 c3         1 TRT       0.164600
     11 O15         -1.9210    -0.3440    -0.8060 os         1 TRT      -0.335100
     12 C12         -1.4970    -0.1600     0.4940 ca         1 TRT       0.142100
     13 C13         -1.8730     1.0180     1.1480 ca         1 TRT      -0.172000
     14 C14         -1.4730     1.2610     2.4730 ca         1 TRT      -0.076000
     15 C11         -0.7210    -1.1080     1.1860 ca         1 TRT      -0.172000
     16 C10         -0.3190    -0.8670     2.5120 ca         1 TRT      -0.076000
     17 C9          -0.6690     0.3350     3.1860 ca         1 TRT      -0.106300
     18 C6          -0.2530     0.6380     4.6680 c3         1 TRT       0.022300
     19 C8           0.3650     2.0630     4.7400 c3         1 TRT      -0.082100
     20 C7          -1.5710     0.6060     5.4980 c3         1 TRT      -0.082100
     21 C5           0.7780    -0.4460     5.1990 c3         1 TRT      -0.061400
     22 C1           1.5940    -0.3320     6.5510 c3         1 TRT      -0.038000
     23 C2           0.7210     0.0200     7.7830 c3         1 TRT      -0.084767
     24 C4           2.2210    -1.7330     6.8120 c3         1 TRT      -0.084767
     25 C3           2.7810     0.6730     6.4500 c3         1 TRT      -0.084767
     26 H251         3.2210    -1.7960    -9.1740 h1         1 TRT       0.026700
     27 H252         4.2220    -0.4120    -8.6810 h1         1 TRT       0.026700
     28 H253         3.7910    -1.6700    -7.4950 h1         1 TRT       0.026700
     29 H231         2.7510     0.0930    -6.0270 h1         1 TRT       0.029700
     30 H232         3.1520     1.3440    -7.2240 h1         1 TRT       0.029700
     31 H221         1.2340     2.1580    -6.0190 h1         1 TRT       0.027200
     32 H222         0.6400     1.6650    -7.6210 h1         1 TRT       0.027200
     33 H201        -1.0700     1.7790    -5.0820 h1         1 TRT       0.028200
     34 H202        -1.6490     1.2170    -6.6660 h1         1 TRT       0.028200
     35 H191        -3.0450     0.1480    -5.0220 h1         1 TRT       0.029200
     36 H192        -1.9560    -1.1130    -5.6440 h1         1 TRT       0.029200
     37 H171        -3.2770    -1.1560    -2.8780 h1         1 TRT       0.030200
     38 H172        -2.1350    -2.3800    -3.4750 h1         1 TRT       0.030200
     39 H161        -1.9860    -2.4200    -1.0700 h1         1 TRT       0.042700
     40 H162        -0.4970    -1.6380    -1.6570 h1         1 TRT       0.042700
     41 H13         -2.4860     1.7490     0.6270 ha         1 TRT       0.119500
     42 H14         -1.8140     2.1800     2.9400 ha         1 TRT       0.109500
     43 H11         -0.4210    -2.0400     0.7160 ha         1 TRT       0.119500
     44 H10          0.2620    -1.6470     2.9930 ha         1 TRT       0.109500
     45 H8C1         1.3290     2.0970     4.2190 hc         1 TRT       0.034533
     46 H8C2        -0.2800     2.8270     4.2960 hc         1 TRT       0.034533
     47 H8C3         0.5100     2.3750     5.7780 hc         1 TRT       0.034533
     48 H7C1        -1.9780    -0.4110     5.5430 hc         1 TRT       0.034533
     49 H7C2        -1.4320     0.9640     6.5210 hc         1 TRT       0.034533
     50 H7C3        -2.3380     1.2490     5.0520 hc         1 TRT       0.034533
     51 H5C1         0.2320    -1.3970     5.2360 hc         1 TRT       0.038200
     52 H5C2         1.5390    -0.5710     4.4200 hc         1 TRT       0.038200
     53 H2C1         1.2910    -0.1070     8.7120 hc         1 TRT       0.032144
     54 H2C2         0.3930     1.0640     7.7550 hc         1 TRT       0.032144
     55 H2C3        -0.1600    -0.6300     7.8410 hc         1 TRT       0.032144
     56 H4C1         1.4440    -2.4970     6.9380 hc         1 TRT       0.032144
     57 H4C2         2.8630    -2.0390     5.9770 hc         1 TRT       0.032144
     58 H4C3         2.8340    -1.7330     7.7220 hc         1 TRT       0.032144
     59 H3C1         2.4540     1.7160     6.4560 hc         1 TRT       0.032144
     60 H3C2         3.4590     0.5580     7.3040 hc         1 TRT       0.032144
     61 H3C3         3.3660     0.5030     5.5380 hc         1 TRT       0.032144
@<TRIPOS>BOND
     1     1     2 1   
     2     1    26 1   
     3     1    27 1   
     4     1    28 1   
     5     2     3 1   
     6     3     4 1   
     7     3    29 1   
     8     3    30 1   
     9     4     5 1   
    10     4    31 1   
    11     4    32 1   
    12     5     6 1   
    13     6     7 1   
    14     6    33 1   
    15     6    34 1   
    16     7     8 1   
    17     7    35 1   
    18     7    36 1   
    19     8     9 1   
    20     9    10 1   
    21     9    37 1   
    22     9    38 1   
    23    10    11 1   
    24    10    39 1   
    25    10    40 1   
    26    11    12 1   
    27    12    13 ar  
    28    12    15 ar  
    29    13    14 ar  
    30    13    41 1   
    31    14    17 ar  
    32    14    42 1   
    33    15    16 ar  
    34    15    43 1   
    35    16    17 ar  
    36    16    44 1   
    37    17    18 1   
    38    18    19 1   
    39    18    20 1   
    40    18    21 1   
    41    19    45 1   
    42    19    46 1   
    43    19    47 1   
    44    20    48 1   
    45    20    49 1   
    46    20    50 1   
    47    21    22 1   
    48    21    51 1   
    49    21    52 1   
    50    22    23 1   
    51    22    24 1   
    52    22    25 1   
    53    23    53 1   
    54    23    54 1   
    55    23    55 1   
    56    24    56 1   
    57    24    57 1   
    58    24    58 1   
    59    25    59 1   
    60    25    60 1   
    61    25    61 1   
@<TRIPOS>SUBSTRUCTURE
     1 TRT         1 TEMP              0 ****  ****    0 ROOT
