@<TRIPOS>MOLECULE
TRU
   28    29     1     0     0
SMALL
bcc


@<TRIPOS>ATOM
      1 S1          -1.3930     1.7280    -0.0130 sy         1 TRU       1.320200
      2 O17         -1.9710     1.5890     1.3110 o          1 TRU      -0.586300
      3 O16         -1.0240     3.0410    -0.4970 o          1 TRU      -0.586300
      4 N10         -2.4650     1.0660    -1.0870 n7         1 TRU      -0.805100
      5 C9          -2.7570    -0.3390    -0.9490 c6         1 TRU       0.495700
      6 C18         -3.7220    -0.6200     0.2160 c3         1 TRU       0.134100
      7 CL20        -5.1850     0.3560     0.0360 cl         1 TRU      -0.131900
      8 CL19        -4.1470    -2.3470     0.1820 cl         1 TRU      -0.131900
      9 N8          -1.5650    -1.1530    -0.8210 nu         1 TRU      -0.801600
     10 C3          -0.3210    -0.7030    -0.5450 ca         1 TRU       0.324600
     11 C4           0.7720    -1.5800    -0.6510 ca         1 TRU      -0.237000
     12 C5           2.0480    -1.1420    -0.3990 ca         1 TRU       0.194400
     13 CL11         3.3260    -2.2880    -0.5320 cl         1 TRU      -0.074400
     14 C6           2.3110     0.1860    -0.0350 ca         1 TRU      -0.382500
     15 S12          3.9500     0.8120     0.2350 sy         1 TRU       1.305200
     16 N15          4.5910     0.0440     1.5300 n8         1 TRU      -0.897700
     17 O14          3.7940     2.2050     0.6150 o          1 TRU      -0.594800
     18 O13          4.7670     0.4640    -0.9110 o          1 TRU      -0.594800
     19 C7           1.2460     1.0590     0.0700 ca         1 TRU       0.132000
     20 C2          -0.0450     0.6220    -0.1670 ca         1 TRU      -0.423500
     21 H10         -2.2730     1.3440    -2.0440 hn         1 TRU       0.446800
     22 H9          -3.2700    -0.6270    -1.8670 h2         1 TRU       0.092700
     23 H18         -3.2880    -0.4140     1.1900 h2         1 TRU       0.139700
     24 HN8         -1.6350    -2.0950    -1.1710 hn         1 TRU       0.464800
     25 H4           0.6010    -2.6100    -0.9380 ha         1 TRU       0.154000
     26 H151         4.0750     0.1740     2.3920 hn         1 TRU       0.428800
     27 H152         4.8400    -0.9260     1.3750 hn         1 TRU       0.428800
     28 H7           1.4190     2.0930     0.3370 ha         1 TRU       0.184000
@<TRIPOS>BOND
     1     1     2 2   
     2     1     3 2   
     3     1     4 1   
     4     1    20 1   
     5     4     5 1   
     6     4    21 1   
     7     5     6 1   
     8     5     9 1   
     9     5    22 1   
    10     6     7 1   
    11     6     8 1   
    12     6    23 1   
    13     9    10 1   
    14     9    24 1   
    15    10    11 ar  
    16    10    20 ar  
    17    11    12 ar  
    18    11    25 1   
    19    12    13 1   
    20    12    14 ar  
    21    14    15 1   
    22    14    19 ar  
    23    15    16 1   
    24    15    17 2   
    25    15    18 2   
    26    16    26 1   
    27    16    27 1   
    28    19    20 ar  
    29    19    28 1   
@<TRIPOS>SUBSTRUCTURE
     1 TRU         1 TEMP              0 ****  ****    0 ROOT
