@<TRIPOS>MOLECULE
TRU
   28    29     1     0     0
SMALL
No Charge or Current Charge


@<TRIPOS>ATOM
      1 S1          -1.4320     1.9370    -0.5640 sy         1 TRU       1.178600
      2 O17         -1.7800     2.3120     0.8070 o          1 TRU      -0.515500
      3 O16         -1.0850     2.9510    -1.5590 o          1 TRU      -0.515500
      4 N10         -2.7340     1.1200    -1.1960 n7         1 TRU      -0.860300
      5 C9          -2.8540    -0.2630    -0.8240 c6         1 TRU       0.495700
      6 C18         -2.9700    -0.5860     0.7240 c3         1 TRU       0.287300
      7 Cl20        -4.4710     0.1460     1.4600 cl         1 TRU      -0.208500
      8 Cl19        -3.0040    -2.3850     1.0230 cl         1 TRU      -0.208500
      9 N8          -1.6910    -0.7920    -1.4910 nu         1 TRU      -0.995200
     10 C3          -0.4210    -0.5230    -1.0410 ca         1 TRU       0.463000
     11 C4           0.5670    -1.5000    -1.0620 ca         1 TRU      -0.219000
     12 C5           1.8480    -1.2120    -0.5720 ca         1 TRU       0.286000
     13 Cl11         3.0340    -2.5180    -0.6080 cl         1 TRU      -0.166000
     14 C6           2.1280     0.0720    -0.0590 ca         1 TRU      -0.382500
     15 S12          3.7360     0.5070     0.5730 sy         1 TRU       1.163600
     16 N15          3.8410    -0.3770     1.9360 n8         1 TRU      -1.008100
     17 O14          3.7480     1.8900     1.0430 o          1 TRU      -0.524000
     18 O13          4.8010    -0.0280    -0.2700 o          1 TRU      -0.524000
     19 C7           1.1150     1.0510    -0.0410 ca         1 TRU       0.150000
     20 C2          -0.1560     0.7290    -0.5380 ca         1 TRU      -0.423500
     21 H10         -2.4150     1.0550    -2.1560 hn         1 TRU       0.502000
     22 H9          -3.7690    -0.6570    -1.2980 h2         1 TRU       0.092700
     23 H18         -2.1040    -0.1890     1.2590 h2         1 TRU       0.139700
     24 HN8         -1.7960    -1.7340    -1.8740 hn         1 TRU       0.520000
     25 H4           0.3490    -2.4890    -1.4500 ha         1 TRU       0.136000
     26 H151         4.6560    -0.9450     1.7160 hn         1 TRU       0.484000
     27 H152         4.2290     0.3130     2.5740 hn         1 TRU       0.484000
     28 H7           1.3080     2.0520     0.3490 ha         1 TRU       0.166000
@<TRIPOS>BOND
     1     1     2 2   
     2     1     3 2   
     3     1     4 1   
     4     1    20 1   
     5     4     5 1   
     6     4    21 1   
     7     5     6 1   
     8     5     9 1   
     9     5    22 1   
    10     6     7 1   
    11     6     8 1   
    12     6    23 1   
    13     9    10 1   
    14     9    24 1   
    15    10    11 ar  
    16    10    20 ar  
    17    11    12 ar  
    18    11    25 1   
    19    12    13 1   
    20    12    14 ar  
    21    14    15 1   
    22    14    19 ar  
    23    15    16 1   
    24    15    17 2   
    25    15    18 2   
    26    16    26 1   
    27    16    27 1   
    28    19    20 ar  
    29    19    28 1   
@<TRIPOS>SUBSTRUCTURE
     1 TRU         1 TEMP              0 ****  ****    0 ROOT
