@<TRIPOS>MOLECULE
TRV
   47    47     1     0     0
SMALL
No Charge or Current Charge


@<TRIPOS>ATOM
      1 O2         -17.2890   -19.1010    62.3140 oh         1 TRV      -0.705000
      2 C1         -16.3300   -18.4430    60.1720 c3         1 TRV       0.168600
      3 C2         -16.0930   -18.6350    61.7140 c5         1 TRV       0.410000
      4 C3         -15.6560   -17.3470    62.4980 c5         1 TRV       0.067300
      5 C4         -14.9060   -18.0020    63.6930 c5         1 TRV       0.097300
      6 C5         -14.0930   -19.0580    62.8920 c5         1 TRV       0.170300
      7 C6         -13.4550   -20.1730    63.7560 c3         1 TRV       0.165600
      8 O1         -15.1860   -17.8750    59.4870 oh         1 TRV      -0.717000
      9 O5         -15.0600   -19.6150    61.9610 os         1 TRV      -0.451000
     10 O3         -16.7810   -16.5370    62.9130 oh         1 TRV      -0.708000
     11 O4         -14.0970   -17.0690    64.4240 oh         1 TRV      -0.702000
     12 O6         -12.5800   -20.9590    62.9210 os         1 TRV      -0.428100
     13 C1N        -11.9240   -22.0160    63.4950 c          1 TRV       0.594100
     14 C2N        -11.0200   -22.7360    62.4920 c3         1 TRV      -0.135400
     15 C3N         -9.5760   -22.1800    62.5350 c3         1 TRV      -0.071400
     16 C4N         -8.6320   -22.8750    61.5300 c3         1 TRV      -0.074400
     17 C5N         -7.1910   -22.3210    61.5730 c3         1 TRV      -0.074400
     18 C6N         -6.2460   -23.0160    60.5680 c3         1 TRV      -0.075400
     19 C7N         -4.8050   -22.4620    60.6110 c3         1 TRV      -0.074400
     20 C8N         -3.8620   -23.1550    59.6090 c3         1 TRV      -0.088100
     21 O1N        -12.0100   -22.3250    64.6760 o          1 TRV      -0.497000
     22 H11        -17.2060   -17.7930    60.0380 h1         1 TRV       0.047200
     23 H12        -16.5830   -19.4220    59.7410 h1         1 TRV       0.047200
     24 H3         -14.9600   -16.7560    61.8840 h1         1 TRV       0.079700
     25 H4         -15.6090   -18.5060    64.3740 h1         1 TRV       0.048700
     26 H5         -13.2980   -18.5640    62.3170 h1         1 TRV       0.084700
     27 H61        -14.2500   -20.7930    64.1930 h1         1 TRV       0.058200
     28 H62        -12.8890   -19.7090    64.5740 h1         1 TRV       0.058200
     29 HO1        -15.4030   -17.8620    58.5240 ho         1 TRV       0.508000
     30 HO3        -16.4520   -15.6140    63.0420 ho         1 TRV       0.514000
     31 HO4        -14.7060   -16.5340    64.9860 ho         1 TRV       0.511000
     32 H22        -11.4070   -22.5720    61.4800 hc         1 TRV       0.073200
     33 H23        -11.0000   -23.8060    62.7300 hc         1 TRV       0.073200
     34 H24         -9.5980   -21.1030    62.3240 hc         1 TRV       0.051200
     35 H25         -9.1740   -22.2990    63.5490 hc         1 TRV       0.051200
     36 H26         -9.0330   -22.7560    60.5160 hc         1 TRV       0.039700
     37 H27         -8.6100   -23.9520    61.7410 hc         1 TRV       0.039700
     38 H28         -6.7890   -22.4400    62.5870 hc         1 TRV       0.039200
     39 H29         -7.2120   -21.2440    61.3620 hc         1 TRV       0.039200
     40 H30         -6.6470   -22.8960    59.5540 hc         1 TRV       0.037700
     41 H31         -6.2240   -24.0920    60.7790 hc         1 TRV       0.037700
     42 H32         -4.3990   -22.5810    61.6230 hc         1 TRV       0.036700
     43 H33         -4.8220   -21.3860    60.3980 hc         1 TRV       0.036700
     44 H34         -2.8530   -22.7290    59.6760 hc         1 TRV       0.031367
     45 H35         -3.7950   -24.2290    59.8180 hc         1 TRV       0.031367
     46 H36         -4.2220   -23.0230    58.5820 hc         1 TRV       0.031367
     47 HO2        -17.6130   -18.2700    62.7430 ho         1 TRV       0.524000
@<TRIPOS>BOND
     1     1     3 1   
     2     1    47 1   
     3     2     3 1   
     4     2     8 1   
     5     2    22 1   
     6     2    23 1   
     7     3     4 1   
     8     3     9 1   
     9     4     5 1   
    10     4    10 1   
    11     4    24 1   
    12     5     6 1   
    13     5    11 1   
    14     5    25 1   
    15     6     7 1   
    16     6     9 1   
    17     6    26 1   
    18     7    12 1   
    19     7    27 1   
    20     7    28 1   
    21     8    29 1   
    22    10    30 1   
    23    11    31 1   
    24    12    13 1   
    25    13    14 1   
    26    13    21 2   
    27    14    15 1   
    28    14    32 1   
    29    14    33 1   
    30    15    16 1   
    31    15    34 1   
    32    15    35 1   
    33    16    17 1   
    34    16    36 1   
    35    16    37 1   
    36    17    18 1   
    37    17    38 1   
    38    17    39 1   
    39    18    19 1   
    40    18    40 1   
    41    18    41 1   
    42    19    20 1   
    43    19    42 1   
    44    19    43 1   
    45    20    44 1   
    46    20    45 1   
    47    20    46 1   
@<TRIPOS>SUBSTRUCTURE
     1 TRV         1 TEMP              0 ****  ****    0 ROOT
