@<TRIPOS>MOLECULE
TRV
   47    47     1     0     0
SMALL
abcg2


@<TRIPOS>ATOM
      1 O2         -17.3250   -19.5050    62.1390 oh         1 TRV      -0.705000
      2 C1         -16.4500   -18.4580    60.2630 c3         1 TRV       0.168600
      3 C2         -16.2340   -18.7470    61.7420 c5         1 TRV       0.410000
      4 C3         -16.0210   -17.4780    62.5920 c5         1 TRV       0.067300
      5 C4         -14.9960   -17.9300    63.6270 c5         1 TRV       0.097300
      6 C5         -14.1330   -18.8530    62.7770 c5         1 TRV       0.170300
      7 C6         -13.3850   -19.8670    63.6030 c3         1 TRV       0.165600
      8 O1         -15.2970   -17.8400    59.7510 oh         1 TRV      -0.717000
      9 O5         -15.0390   -19.4920    61.9000 os         1 TRV      -0.451000
     10 O3         -17.2450   -17.0300    63.1000 oh         1 TRV      -0.708000
     11 O4         -14.2200   -16.9050    64.1840 oh         1 TRV      -0.702000
     12 O6         -12.5650   -20.6360    62.7210 os         1 TRV      -0.428100
     13 C1N        -11.7410   -21.5260    63.2630 c          1 TRV       0.594100
     14 C2N        -10.9060   -22.2440    62.2390 c3         1 TRV      -0.135400
     15 C3N         -9.4180   -21.9340    62.4200 c3         1 TRV      -0.071400
     16 C4N         -8.5490   -22.6980    61.4300 c3         1 TRV      -0.074400
     17 C5N         -7.0680   -22.3710    61.5730 c3         1 TRV      -0.074400
     18 C6N         -6.1850   -23.1500    60.6060 c3         1 TRV      -0.075400
     19 C7N         -4.7040   -22.8200    60.7430 c3         1 TRV      -0.074400
     20 C8N         -3.8290   -23.6120    59.7820 c3         1 TRV      -0.088100
     21 O1N        -11.6650   -21.7150    64.4530 o          1 TRV      -0.497000
     22 H11        -17.3360   -17.8210    60.1650 h1         1 TRV       0.047200
     23 H12        -16.6700   -19.4030    59.7470 h1         1 TRV       0.047200
     24 H3         -15.5400   -16.7140    61.9670 h1         1 TRV       0.079700
     25 H4         -15.5010   -18.5140    64.4110 h1         1 TRV       0.048700
     26 H5         -13.4140   -18.2450    62.2080 h1         1 TRV       0.084700
     27 H61        -14.0820   -20.5180    64.1380 h1         1 TRV       0.058200
     28 H62        -12.7680   -19.3450    64.3390 h1         1 TRV       0.058200
     29 HO1        -15.5230   -17.4330    58.9100 ho         1 TRV       0.508000
     30 HO3        -17.1100   -16.1690    63.5080 ho         1 TRV       0.514000
     31 HO4        -14.6670   -16.5610    64.9630 ho         1 TRV       0.511000
     32 H22        -11.2250   -21.9850    61.2290 hc         1 TRV       0.073200
     33 H23        -11.0700   -23.3170    62.3710 hc         1 TRV       0.073200
     34 H24         -9.2520   -20.8590    62.2970 hc         1 TRV       0.051200
     35 H25         -9.1150   -22.1840    63.4400 hc         1 TRV       0.051200
     36 H26         -8.8750   -22.4730    60.4090 hc         1 TRV       0.039700
     37 H27         -8.7010   -23.7740    61.5710 hc         1 TRV       0.039700
     38 H28         -6.7480   -22.5760    62.6000 hc         1 TRV       0.039200
     39 H29         -6.9180   -21.2970    61.4160 hc         1 TRV       0.039200
     40 H30         -6.5070   -22.9500    59.5770 hc         1 TRV       0.037700
     41 H31         -6.3330   -24.2240    60.7670 hc         1 TRV       0.037700
     42 H32         -4.3850   -23.0130    61.7730 hc         1 TRV       0.036700
     43 H33         -4.5550   -21.7490    60.5760 hc         1 TRV       0.036700
     44 H34         -2.7720   -23.3780    59.9140 hc         1 TRV       0.031367
     45 H35         -3.9490   -24.6860    59.9320 hc         1 TRV       0.031367
     46 H36         -4.0870   -23.3950    58.7430 hc         1 TRV       0.031367
     47 HO2        -17.4690   -19.4360    63.0890 ho         1 TRV       0.524000
@<TRIPOS>BOND
     1     1     3 1   
     2     1    47 1   
     3     2     3 1   
     4     2     8 1   
     5     2    22 1   
     6     2    23 1   
     7     3     4 1   
     8     3     9 1   
     9     4     5 1   
    10     4    10 1   
    11     4    24 1   
    12     5     6 1   
    13     5    11 1   
    14     5    25 1   
    15     6     7 1   
    16     6     9 1   
    17     6    26 1   
    18     7    12 1   
    19     7    27 1   
    20     7    28 1   
    21     8    29 1   
    22    10    30 1   
    23    11    31 1   
    24    12    13 1   
    25    13    14 1   
    26    13    21 2   
    27    14    15 1   
    28    14    32 1   
    29    14    33 1   
    30    15    16 1   
    31    15    34 1   
    32    15    35 1   
    33    16    17 1   
    34    16    36 1   
    35    16    37 1   
    36    17    18 1   
    37    17    38 1   
    38    17    39 1   
    39    18    19 1   
    40    18    40 1   
    41    18    41 1   
    42    19    20 1   
    43    19    42 1   
    44    19    43 1   
    45    20    44 1   
    46    20    45 1   
    47    20    46 1   
@<TRIPOS>SUBSTRUCTURE
     1 TRV         1 TEMP              0 ****  ****    0 ROOT
