@<TRIPOS>MOLECULE
TRW
   41    43     1     0     0
SMALL
bcc


@<TRIPOS>ATOM
      1 N           -8.6460    17.2610    23.8770 n8         1 TRW      -0.865800
      2 CA          -9.2840    18.1820    24.7850 c3         1 TRW       0.051500
      3 CB         -10.8170    18.1290    24.6650 c3         1 TRW       0.013800
      4 CG         -11.4120    16.7930    24.9720 cc         1 TRW      -0.141400
      5 CD2        -11.6560    15.7180    24.0580 ca         1 TRW      -0.045800
      6 CE2        -12.2200    14.6680    24.8030 ca         1 TRW      -0.068200
      7 CE3        -11.4700    15.5460    22.6770 ca         1 TRW      -0.098000
      8 CD1        -11.8370    16.3530    26.1970 cd         1 TRW      -0.103100
      9 NE1        -12.3140    15.0780    26.1010 na         1 TRW      -0.151400
     10 CZ2        -12.6170    13.4570    24.2260 ca         1 TRW       0.096100
     11 CZ3        -11.8360    14.3490    22.1100 ca         1 TRW      -0.104000
     12 CH2        -12.4040    13.2970    22.8620 ca         1 TRW      -0.013400
     13 N6         -12.7580    12.1000    22.1840 nu         1 TRW      -0.481400
     14 O7         -13.1610    12.5370    25.0520 oh         1 TRW      -0.506100
     15 C           -8.9060    17.9070    26.2120 c          1 TRW       0.575900
     16 O           -8.0950    17.0940    26.5750 o          1 TRW      -0.495100
     17 N1         -13.9620    12.1310    21.4930 nu         1 TRW      -0.515400
     18 C1         -13.9390    12.3590    20.1280 ca         1 TRW       0.161600
     19 C2         -12.8070    12.1000    19.3490 ca         1 TRW      -0.177000
     20 C3         -12.8480    12.2850    17.9750 ca         1 TRW      -0.100000
     21 C4         -14.0040    12.7250    17.3430 ca         1 TRW      -0.167000
     22 C5         -15.1290    12.9850    18.1160 ca         1 TRW      -0.100000
     23 C6         -15.1010    12.8090    19.4910 ca         1 TRW      -0.177000
     24 H           -8.8830    17.5110    22.9260 hn         1 TRW       0.346800
     25 H2          -7.6400    17.3360    23.9490 hn         1 TRW       0.346800
     26 HA          -9.0020    19.2400    24.6290 h1         1 TRW       0.024700
     27 HB2        -11.0860    18.4420    23.6520 hc         1 TRW       0.046200
     28 HB3        -11.2370    18.8880    25.3300 hc         1 TRW       0.046200
     29 HE3        -11.0360    16.3300    22.0710 ha         1 TRW       0.135000
     30 HD1        -11.8410    16.8680    27.1460 h4         1 TRW       0.160000
     31 HE1        -12.6950    14.5450    26.8640 hn         1 TRW       0.311700
     32 HZ3        -11.6810    14.1830    21.0520 ha         1 TRW       0.146000
     33 HN6        -12.6920    11.2590    22.7380 hn         1 TRW       0.402800
     34 HO7        -13.5940    11.8330    24.5570 ho         1 TRW       0.423000
     35 HC          -9.4310    18.5540    26.9400 h4         1 TRW      -0.023800
     36 HN1        -14.7300    12.5690    21.9870 hn         1 TRW       0.390800
     37 HC2        -11.8970    11.7560    19.8220 ha         1 TRW       0.137000
     38 HC3        -11.9590    12.0790    17.3920 ha         1 TRW       0.126500
     39 HC4        -14.0270    12.8670    16.2700 ha         1 TRW       0.130000
     40 HC5        -16.0400    13.3360    17.6480 ha         1 TRW       0.126500
     41 HC6        -15.9860    13.0240    20.0790 ha         1 TRW       0.137000
@<TRIPOS>BOND
     1     1     2 1   
     2     1    24 1   
     3     1    25 1   
     4     2     3 1   
     5     2    15 1   
     6     2    26 1   
     7     3     4 1   
     8     3    27 1   
     9     3    28 1   
    10     4     5 1   
    11     4     8 2   
    12     5     6 ar  
    13     5     7 ar  
    14     6     9 1   
    15     6    10 ar  
    16     7    11 ar  
    17     7    29 1   
    18     8     9 1   
    19     8    30 1   
    20     9    31 1   
    21    10    12 ar  
    22    10    14 1   
    23    11    12 ar  
    24    11    32 1   
    25    12    13 1   
    26    13    17 1   
    27    13    33 1   
    28    14    34 1   
    29    15    16 2   
    30    15    35 1   
    31    17    18 1   
    32    17    36 1   
    33    18    19 ar  
    34    18    23 ar  
    35    19    20 ar  
    36    19    37 1   
    37    20    21 ar  
    38    20    38 1   
    39    21    22 ar  
    40    21    39 1   
    41    22    23 ar  
    42    22    40 1   
    43    23    41 1   
@<TRIPOS>SUBSTRUCTURE
     1 TRW         1 TEMP              0 ****  ****    0 ROOT
