@<TRIPOS>MOLECULE
TRW
   41    43     1     0     0
SMALL
No Charge or Current Charge


@<TRIPOS>ATOM
      1 N           -9.0840    17.9910    23.4350 n8         1 TRW      -0.865800
      2 CA          -9.3450    18.2900    24.8840 c3         1 TRW       0.051500
      3 CB         -10.8520    18.1550    25.2390 c3         1 TRW       0.013800
      4 CG         -11.3310    16.7350    25.4360 cc         1 TRW      -0.141400
      5 CD2        -11.7450    15.8030    24.4220 ca         1 TRW      -0.045800
      6 CE2        -12.0960    14.6370    25.0420 ca         1 TRW      -0.068200
      7 CE3        -11.8390    15.9530    23.0320 ca         1 TRW      -0.098000
      8 CD1        -11.4730    16.0630    26.6470 cd         1 TRW      -0.103100
      9 NE1        -11.9440    14.7510    26.4130 na         1 TRW      -0.151400
     10 CZ2        -12.5650    13.5270    24.3180 ca         1 TRW       0.096100
     11 CZ3        -12.2940    14.8540    22.2740 ca         1 TRW      -0.104000
     12 CH2        -12.6570    13.6340    22.9010 ca         1 TRW      -0.013400
     13 N6         -13.0570    12.5450    22.1040 nu         1 TRW      -0.481400
     14 O7         -12.9470    12.3930    24.9860 oh         1 TRW      -0.506100
     15 C           -8.4660    17.5110    25.9180 c          1 TRW       0.575900
     16 O           -7.5560    16.7410    25.6170 o          1 TRW      -0.495100
     17 N1         -14.1500    12.8030    21.2030 nu         1 TRW      -0.515400
     18 C1         -13.9990    12.4730    19.8460 ca         1 TRW       0.161600
     19 C2         -13.1640    11.4180    19.4200 ca         1 TRW      -0.177000
     20 C3         -13.0430    11.1120    18.0520 ca         1 TRW      -0.100000
     21 C4         -13.7610    11.8570    17.1010 ca         1 TRW      -0.167000
     22 C5         -14.6000    12.9040    17.5170 ca         1 TRW      -0.100000
     23 C6         -14.7180    13.2070    18.8860 ca         1 TRW      -0.177000
     24 H           -9.5850    18.6670    22.8490 hn         1 TRW       0.346800
     25 H2          -8.0940    18.1550    23.2240 hn         1 TRW       0.346800
     26 HA          -9.0850    19.3480    25.0230 h1         1 TRW       0.024700
     27 HB2        -11.4560    18.6480    24.4670 hc         1 TRW       0.046200
     28 HB3        -11.0380    18.7200    26.1620 hc         1 TRW       0.046200
     29 HE3        -11.5630    16.8860    22.5490 ha         1 TRW       0.135000
     30 HD1        -11.2740    16.4200    27.6530 h4         1 TRW       0.160000
     31 HE1        -12.1380    14.0360    27.1050 hn         1 TRW       0.311700
     32 HZ3        -12.3490    14.9440    21.1910 ha         1 TRW       0.146000
     33 HN6        -13.1670    11.6690    22.6240 hn         1 TRW       0.402800
     34 HO7        -13.7010    11.9910    24.5080 ho         1 TRW       0.423000
     35 HC          -8.7130    17.7020    26.9860 h4         1 TRW      -0.023800
     36 HN1        -14.6300    13.6920    21.3720 hn         1 TRW       0.390800
     37 HC2        -12.6070    10.8300    20.1450 ha         1 TRW       0.137000
     38 HC3        -12.3960    10.2980    17.7310 ha         1 TRW       0.126500
     39 HC4        -13.6690    11.6210    16.0430 ha         1 TRW       0.130000
     40 HC5        -15.1580    13.4800    16.7810 ha         1 TRW       0.126500
     41 HC6        -15.3710    14.0180    19.1980 ha         1 TRW       0.137000
@<TRIPOS>BOND
     1     1     2 1   
     2     1    24 1   
     3     1    25 1   
     4     2     3 1   
     5     2    15 1   
     6     2    26 1   
     7     3     4 1   
     8     3    27 1   
     9     3    28 1   
    10     4     5 1   
    11     4     8 2   
    12     5     6 ar  
    13     5     7 ar  
    14     6     9 1   
    15     6    10 ar  
    16     7    11 ar  
    17     7    29 1   
    18     8     9 1   
    19     8    30 1   
    20     9    31 1   
    21    10    12 ar  
    22    10    14 1   
    23    11    12 ar  
    24    11    32 1   
    25    12    13 1   
    26    13    17 1   
    27    13    33 1   
    28    14    34 1   
    29    15    16 2   
    30    15    35 1   
    31    17    18 1   
    32    17    36 1   
    33    18    19 ar  
    34    18    23 ar  
    35    19    20 ar  
    36    19    37 1   
    37    20    21 ar  
    38    20    38 1   
    39    21    22 ar  
    40    21    39 1   
    41    22    23 ar  
    42    22    40 1   
    43    23    41 1   
@<TRIPOS>SUBSTRUCTURE
     1 TRW         1 TEMP              0 ****  ****    0 ROOT
