@<TRIPOS>MOLECULE
TRY
   24    25     1     0     0
SMALL
No Charge or Current Charge


@<TRIPOS>ATOM
      1 CD2          1.5530    -0.2020    -0.0860 ca         1 TRY      -0.104800
      2 CE3          1.8920    -1.5400     0.1640 ca         1 TRY      -0.037000
      3 CZ3          3.2610    -1.8470     0.3310 ca         1 TRY      -0.175000
      4 CH2          4.2410    -0.8280     0.2470 ca         1 TRY      -0.102000
      5 CZ2          3.8620     0.5090    -0.0030 ca         1 TRY      -0.152000
      6 CE2          2.4970     0.7830    -0.1640 ca         1 TRY      -0.049200
      7 NE1          1.8750     1.9930    -0.4130 na         1 TRY      -0.237700
      8 CD1          0.4780     1.8050    -0.5070 cc         1 TRY      -0.226100
      9 CG           0.2780     0.4450    -0.2950 cd         1 TRY      -0.008200
     10 CB          -1.0070    -0.2590    -0.3390 cf         1 TRY      -0.300000
     11 CA2         -2.2290     0.1430     0.1220 ce         1 TRY       0.037800
     12 N2          -2.3790     1.4010     0.7380 nv         1 TRY      -0.929000
     13 C2          -3.4980    -0.7540     0.0220 c          1 TRY       0.704200
     14 O2          -3.4080    -1.8560    -0.5060 o          1 TRY      -0.716000
     15 OXT         -4.5560    -0.3340     0.4820 o          1 TRY      -0.716000
     16 HE3          1.1300    -2.3130     0.2300 ha         1 TRY       0.124000
     17 HZ3          3.5630    -2.8730     0.5250 ha         1 TRY       0.096000
     18 HH2          5.2920    -1.0760     0.3770 ha         1 TRY       0.090000
     19 HZ2          4.6060     1.2990    -0.0680 ha         1 TRY       0.095000
     20 HE1          2.3600     2.8790    -0.5240 hn         1 TRY       0.330000
     21 HD1         -0.2210     2.6050    -0.7270 h4         1 TRY       0.212000
     22 HB2         -0.9430    -1.2660    -0.7530 ha         1 TRY       0.201000
     23 H21N        -1.5460     1.9010     1.0390 hn         1 TRY       0.431500
     24 H22N        -3.2580     1.6090     1.2100 hn         1 TRY       0.431500
@<TRIPOS>BOND
     1     1     2 ar  
     2     1     6 ar  
     3     1     9 1   
     4     2     3 ar  
     5     2    16 1   
     6     3     4 ar  
     7     3    17 1   
     8     4     5 ar  
     9     4    18 1   
    10     5     6 ar  
    11     5    19 1   
    12     6     7 1   
    13     7     8 1   
    14     7    20 1   
    15     8     9 2   
    16     8    21 1   
    17     9    10 1   
    18    10    11 2   
    19    10    22 1   
    20    11    12 1   
    21    11    13 1   
    22    12    23 1   
    23    12    24 1   
    24    13    14 1   
    25    13    15 1   
@<TRIPOS>SUBSTRUCTURE
     1 TRY         1 TEMP              0 ****  ****    0 ROOT
