@<TRIPOS>MOLECULE
TRY
   24    25     1     0     0
SMALL
bcc


@<TRIPOS>ATOM
      1 CD2          1.5510    -0.2400    -0.0050 ca         1 TRY      -0.104800
      2 CE3          1.9630    -1.5700     0.1210 ca         1 TRY      -0.055000
      3 CZ3          3.3150    -1.8540     0.1550 ca         1 TRY      -0.193000
      4 CH2          4.2710    -0.8280     0.0690 ca         1 TRY      -0.120000
      5 CZ2          3.8940     0.4950    -0.0520 ca         1 TRY      -0.170000
      6 CE2          2.5280     0.7740    -0.0900 ca         1 TRY      -0.049200
      7 NE1          1.8680     1.9600    -0.2100 na         1 TRY      -0.187400
      8 CD1          0.5180     1.7380    -0.2060 cc         1 TRY      -0.176100
      9 CG           0.2570     0.3910    -0.0790 cd         1 TRY      -0.008200
     10 CB          -1.0010    -0.3260    -0.0550 cf         1 TRY      -0.250000
     11 CA2         -2.2390     0.1910     0.0860 ce         1 TRY       0.037800
     12 N2          -2.5060     1.5370     0.2470 nv         1 TRY      -0.818600
     13 C2          -3.4710    -0.7140     0.0480 c          1 TRY       0.914800
     14 O2          -3.2970    -1.9210    -0.1970 o          1 TRY      -0.821300
     15 OXT         -4.5610    -0.1470     0.2770 o          1 TRY      -0.821300
     16 HE3          1.2350    -2.3700     0.1900 ha         1 TRY       0.142000
     17 HZ3          3.6460    -2.8810     0.2500 ha         1 TRY       0.114000
     18 HH2          5.3240    -1.0780     0.0990 ha         1 TRY       0.108000
     19 HZ2          4.6320     1.2850    -0.1170 ha         1 TRY       0.113000
     20 HE1          2.2970     2.8660    -0.2950 hn         1 TRY       0.279700
     21 HD1         -0.1530     2.5700    -0.3360 h4         1 TRY       0.162000
     22 HB2         -0.9390    -1.4000    -0.1640 ha         1 TRY       0.151000
     23 H21N        -1.8380     2.0530     0.8010 hn         1 TRY       0.376300
     24 H22N        -3.4520     1.6910     0.5620 hn         1 TRY       0.376300
@<TRIPOS>BOND
     1     1     2 ar  
     2     1     6 ar  
     3     1     9 1   
     4     2     3 ar  
     5     2    16 1   
     6     3     4 ar  
     7     3    17 1   
     8     4     5 ar  
     9     4    18 1   
    10     5     6 ar  
    11     5    19 1   
    12     6     7 1   
    13     7     8 1   
    14     7    20 1   
    15     8     9 2   
    16     8    21 1   
    17     9    10 1   
    18    10    11 2   
    19    10    22 1   
    20    11    12 1   
    21    11    13 1   
    22    12    23 1   
    23    12    24 1   
    24    13    14 1   
    25    13    15 1   
@<TRIPOS>SUBSTRUCTURE
     1 TRY         1 TEMP              0 ****  ****    0 ROOT
