@<TRIPOS>MOLECULE
TS5
   62    61     1     0     0
SMALL
abcg2


@<TRIPOS>ATOM
      1 N1           2.9170    -0.6350    -7.9340 n8         1 TS5      -0.984200
      2 CA1          1.5580    -0.1770    -8.1630 c3         1 TS5       0.019500
      3 C1           1.5210     0.9090    -9.2620 c          1 TS5       0.728000
      4 OE1          2.5710     1.5470    -9.4710 o          1 TS5      -0.729500
      5 OE2          0.4190     1.0850    -9.8210 o          1 TS5      -0.729500
      6 CB1          0.8460     0.3830    -6.9180 c3         1 TS5      -0.095400
      7 CG1          0.7200    -0.6420    -5.7980 c3         1 TS5      -0.152400
      8 CD1          0.0520    -0.0940    -4.5600 c          1 TS5       0.606100
      9 O1           0.2910     1.0170    -4.1100 o          1 TS5      -0.606100
     10 N2          -0.8300    -0.9260    -3.9670 ns         1 TS5      -0.494900
     11 CA2         -1.3900    -0.6310    -2.6790 c3         1 TS5       0.054700
     12 C2          -0.3120    -0.7040    -1.5880 c          1 TS5       0.585100
     13 O2           0.7010    -1.3670    -1.7270 o          1 TS5      -0.598100
     14 CB2         -2.4950    -1.6280    -2.3450 c3         1 TS5       0.058600
     15 SG2         -3.7750    -1.5590    -3.6430 sh         1 TS5      -0.403800
     16 N3          -0.6060    -0.0240    -0.4750 ns         1 TS5      -0.499900
     17 CA3          0.2470    -0.0360     0.6810 c3         1 TS5       0.022000
     18 C3          -0.4740     0.5940     1.8620 c          1 TS5       0.588100
     19 O3          -1.5080     1.2330     1.7210 o          1 TS5      -0.610100
     20 N4           0.1240     0.3950     3.0380 ns         1 TS5      -0.505900
     21 C8          -0.3700     0.9320     4.2910 c3         1 TS5       0.105000
     22 C9           0.3170     0.2480     5.4610 c3         1 TS5      -0.100400
     23 N5           0.4840     0.0940     7.8950 n7         1 TS5      -0.862400
     24 C10         -0.1820     0.7680     6.7990 c3         1 TS5       0.163800
     25 C4           0.0400     0.5510     9.1980 c3         1 TS5       0.160800
     26 C5           0.7660    -0.1760    10.3180 c3         1 TS5      -0.079400
     27 C6           0.3140     0.2730    11.7010 c3         1 TS5      -0.078400
     28 C7           1.0370    -0.4620    12.8190 c3         1 TS5       0.149800
     29 N6           0.5700    -0.0220    14.1260 n8         1 TS5      -0.996200
     30 HN11         3.4900     0.1540    -7.6610 hn         1 TS5       0.372000
     31 HN12         2.9450    -1.2950    -7.1670 hn         1 TS5       0.372000
     32 HA1          0.9730    -1.0340    -8.5180 h1         1 TS5       0.038700
     33 HB11        -0.1510     0.7230    -7.2080 hc         1 TS5       0.060200
     34 HB12         1.3920     1.2600    -6.5590 hc         1 TS5       0.060200
     35 HG11         1.7110    -0.9840    -5.4810 hc         1 TS5       0.048700
     36 HG12         0.1890    -1.5270    -6.1580 hc         1 TS5       0.048700
     37 HN2         -0.8960    -1.8730    -4.3080 hn         1 TS5       0.322500
     38 HA2         -1.8200     0.3740    -2.6920 h1         1 TS5       0.096700
     39 HB21        -2.0910    -2.6390    -2.2730 h1         1 TS5       0.064700
     40 HB22        -2.9400    -1.3690    -1.3870 h1         1 TS5       0.064700
     41 HG2         -4.6650    -2.3430    -3.0260 hs         1 TS5       0.189800
     42 HN3         -1.4290     0.5600    -0.4340 hn         1 TS5       0.343500
     43 HA31         1.1720     0.5210     0.4990 h1         1 TS5       0.066200
     44 HA32         0.5400    -1.0580     0.9300 h1         1 TS5       0.066200
     45 HN1          0.9830    -0.1320     3.0600 hn         1 TS5       0.317500
     46 H1'1        -1.4490     0.7730     4.3480 h1         1 TS5       0.052700
     47 H1'2        -0.2040     2.0130     4.3350 h1         1 TS5       0.052700
     48 H2'1         1.3990     0.4070     5.3920 hc         1 TS5       0.051200
     49 H2'2         0.1490    -0.8310     5.4070 hc         1 TS5       0.051200
     50 H8           1.4820     0.2600     7.8180 hn         1 TS5       0.404000
     51 H3'1        -1.2570     0.5810     6.8840 h1         1 TS5       0.032700
     52 H3'2        -0.0590     1.8630     6.8370 h1         1 TS5       0.032700
     53 H4'1        -1.0350     0.3590     9.2790 h1         1 TS5       0.029700
     54 H4'2         0.1640     1.6390     9.3270 h1         1 TS5       0.029700
     55 H5'1         1.8450    -0.0110    10.2170 hc         1 TS5       0.044200
     56 H5'2         0.6060    -1.2520    10.2080 hc         1 TS5       0.044200
     57 H6'1        -0.7630     0.1160    11.8090 hc         1 TS5       0.046200
     58 H6'2         0.4820     1.3510    11.8080 hc         1 TS5       0.046200
     59 H7'1         2.1220    -0.3430    12.6780 h1         1 TS5       0.026700
     60 H7'2         0.8360    -1.5330    12.7280 h1         1 TS5       0.026700
     61 HN31         1.0350    -0.5570    14.8480 hn         1 TS5       0.390500
     62 HN32         0.8550     0.9390    14.2750 hn         1 TS5       0.390500
@<TRIPOS>BOND
     1     1     2 1   
     2     1    30 1   
     3     1    31 1   
     4     2     3 1   
     5     2     6 1   
     6     2    32 1   
     7     3     4 1   
     8     3     5 1   
     9     6     7 1   
    10     6    33 1   
    11     6    34 1   
    12     7     8 1   
    13     7    35 1   
    14     7    36 1   
    15     8     9 2   
    16     8    10 1   
    17    10    11 1   
    18    10    37 1   
    19    11    12 1   
    20    11    14 1   
    21    11    38 1   
    22    12    13 2   
    23    12    16 1   
    24    14    15 1   
    25    14    39 1   
    26    14    40 1   
    27    15    41 1   
    28    16    17 1   
    29    16    42 1   
    30    17    18 1   
    31    17    43 1   
    32    17    44 1   
    33    18    19 2   
    34    18    20 1   
    35    20    21 1   
    36    20    45 1   
    37    21    22 1   
    38    21    46 1   
    39    21    47 1   
    40    22    24 1   
    41    22    48 1   
    42    22    49 1   
    43    23    24 1   
    44    23    25 1   
    45    23    50 1   
    46    24    51 1   
    47    24    52 1   
    48    25    26 1   
    49    25    53 1   
    50    25    54 1   
    51    26    27 1   
    52    26    55 1   
    53    26    56 1   
    54    27    28 1   
    55    27    57 1   
    56    27    58 1   
    57    28    29 1   
    58    28    59 1   
    59    28    60 1   
    60    29    61 1   
    61    29    62 1   
@<TRIPOS>SUBSTRUCTURE
     1 TS5         1 TEMP              0 ****  ****    0 ROOT
