@<TRIPOS>MOLECULE
TS5
   62    61     1     0     0
SMALL
No Charge or Current Charge


@<TRIPOS>ATOM
      1 N1           2.3540    -0.3450    -9.1520 n8         1 TS5      -0.984200
      2 CA1          1.0850    -0.9930    -8.6620 c3         1 TS5       0.019500
      3 C1          -0.0300    -1.2830    -9.7560 c          1 TS5       0.728000
      4 OE1         -0.4860    -0.3390   -10.3920 o          1 TS5      -0.729500
      5 OE2         -0.3470    -2.4460    -9.9690 o          1 TS5      -0.729500
      6 CB1          0.4960    -0.1850    -7.4740 c3         1 TS5      -0.095400
      7 CG1          1.4160    -0.1070    -6.2260 c3         1 TS5      -0.152400
      8 CD1          0.7090     0.5860    -5.0530 c          1 TS5       0.606100
      9 O1           0.5400     1.7960    -5.0100 o          1 TS5      -0.606100
     10 N2           0.3240    -0.2530    -4.0320 ns         1 TS5      -0.494900
     11 CA2         -0.4180     0.1660    -2.8160 c3         1 TS5       0.054700
     12 C2           0.1920    -0.4900    -1.5460 c          1 TS5       0.585100
     13 O2           0.9780    -1.4290    -1.5850 o          1 TS5      -0.598100
     14 CB2         -1.9260    -0.1710    -2.9320 c3         1 TS5       0.058600
     15 SG2         -2.7660     0.4920    -4.4510 sh         1 TS5      -0.403800
     16 N3          -0.2070     0.0590    -0.3450 ns         1 TS5      -0.499900
     17 CA3          0.2460    -0.4120     0.9840 c3         1 TS5       0.022000
     18 C3          -0.3870     0.4030     2.1370 c          1 TS5       0.588100
     19 O3          -1.1710     1.3270     1.9530 o          1 TS5      -0.610100
     20 N4          -0.0050     0.0130     3.4010 ns         1 TS5      -0.505900
     21 C8          -0.4800     0.6420     4.6350 c3         1 TS5       0.105000
     22 C9           0.1430    -0.0110     5.8820 c3         1 TS5      -0.100400
     23 N5           0.2720    -0.0330     8.3480 n7         1 TS5      -0.862400
     24 C10         -0.3460     0.6370     7.1910 c3         1 TS5       0.163800
     25 C4          -0.1320     0.4920     9.6640 c3         1 TS5       0.160800
     26 C5           0.5670    -0.2970    10.7900 c3         1 TS5      -0.079400
     27 C6           0.1820     0.2000    12.2020 c3         1 TS5      -0.078400
     28 C7           0.8800    -0.5920    13.3260 c3         1 TS5       0.149800
     29 N6           0.4900    -0.0970    14.6590 n8         1 TS5      -0.996200
     30 HN11         2.1150     0.5500    -9.5980 hn         1 TS5       0.372000
     31 HN12         2.9260    -0.0760    -8.3440 hn         1 TS5       0.372000
     32 HA1          1.3740    -1.9750    -8.2620 h1         1 TS5       0.038700
     33 HB11        -0.4500    -0.6550    -7.1760 hc         1 TS5       0.060200
     34 HB12         0.2410     0.8300    -7.8080 hc         1 TS5       0.060200
     35 HG11         2.3130     0.4690    -6.4770 hc         1 TS5       0.048700
     36 HG12         1.6970    -1.1280    -5.9400 hc         1 TS5       0.048700
     37 HN2          0.5550    -1.2340    -4.1370 hn         1 TS5       0.322500
     38 HA2         -0.3140     1.2520    -2.6900 h1         1 TS5       0.096700
     39 HB21        -2.0470    -1.2630    -2.9350 h1         1 TS5       0.064700
     40 HB22        -2.4570     0.2180    -2.0540 h1         1 TS5       0.064700
     41 HG2         -3.9930    -0.0140    -4.1780 hs         1 TS5       0.189800
     42 HN3         -0.8510     0.8450    -0.3790 hn         1 TS5       0.343500
     43 HA31         1.3370    -0.3200     1.0540 h1         1 TS5       0.066200
     44 HA32        -0.0290    -1.4660     1.1140 h1         1 TS5       0.066200
     45 HN1          0.6460    -0.7610     3.4690 hn         1 TS5       0.317500
     46 H1'1        -1.5740     0.5530     4.6800 h1         1 TS5       0.052700
     47 H1'2        -0.2210     1.7090     4.6100 h1         1 TS5       0.052700
     48 H2'1         1.2350     0.0680     5.8230 hc         1 TS5       0.051200
     49 H2'2        -0.1090    -1.0790     5.8930 hc         1 TS5       0.051200
     50 H8           1.2920     0.0640     8.2660 hn         1 TS5       0.404000
     51 H3'1        -1.4400     0.5580     7.2440 h1         1 TS5       0.032700
     52 H3'2        -0.0860     1.7050     7.1830 h1         1 TS5       0.032700
     53 H4'1        -1.2200     0.4080     9.7900 h1         1 TS5       0.029700
     54 H4'2         0.1350     1.5550     9.7510 h1         1 TS5       0.029700
     55 H5'1         1.6540    -0.2190    10.6660 hc         1 TS5       0.044200
     56 H5'2         0.3070    -1.3590    10.7000 hc         1 TS5       0.044200
     57 H6'1        -0.9050     0.1220    12.3250 hc         1 TS5       0.046200
     58 H6'2         0.4420     1.2630    12.2910 hc         1 TS5       0.046200
     59 H7'1         1.9700    -0.5030    13.2220 h1         1 TS5       0.026700
     60 H7'2         0.6080    -1.6550    13.2540 h1         1 TS5       0.026700
     61 HN31         1.0220    -0.6090    15.3740 hn         1 TS5       0.390500
     62 HN32         0.8180     0.8710    14.7640 hn         1 TS5       0.390500
@<TRIPOS>BOND
     1     1     2 1   
     2     1    30 1   
     3     1    31 1   
     4     2     3 1   
     5     2     6 1   
     6     2    32 1   
     7     3     4 1   
     8     3     5 1   
     9     6     7 1   
    10     6    33 1   
    11     6    34 1   
    12     7     8 1   
    13     7    35 1   
    14     7    36 1   
    15     8     9 2   
    16     8    10 1   
    17    10    11 1   
    18    10    37 1   
    19    11    12 1   
    20    11    14 1   
    21    11    38 1   
    22    12    13 2   
    23    12    16 1   
    24    14    15 1   
    25    14    39 1   
    26    14    40 1   
    27    15    41 1   
    28    16    17 1   
    29    16    42 1   
    30    17    18 1   
    31    17    43 1   
    32    17    44 1   
    33    18    19 2   
    34    18    20 1   
    35    20    21 1   
    36    20    45 1   
    37    21    22 1   
    38    21    46 1   
    39    21    47 1   
    40    22    24 1   
    41    22    48 1   
    42    22    49 1   
    43    23    24 1   
    44    23    25 1   
    45    23    50 1   
    46    24    51 1   
    47    24    52 1   
    48    25    26 1   
    49    25    53 1   
    50    25    54 1   
    51    26    27 1   
    52    26    55 1   
    53    26    56 1   
    54    27    28 1   
    55    27    57 1   
    56    27    58 1   
    57    28    29 1   
    58    28    59 1   
    59    28    60 1   
    60    29    61 1   
    61    29    62 1   
@<TRIPOS>SUBSTRUCTURE
     1 TS5         1 TEMP              0 ****  ****    0 ROOT
