@<TRIPOS>MOLECULE
TS6
    6     5     1     0     0
SMALL
abcg2


@<TRIPOS>ATOM
      1 P           -0.5590     0.0010    -0.0290 p5         1 TS6       1.151900
      2 O1P         -0.8320    -0.0600     1.4600 o          1 TS6      -0.880833
      3 S2P          1.7140    -0.0190     0.0590 sh         1 TS6      -0.760200
      4 O3P         -0.8910    -1.2470    -0.8240 o          1 TS6      -0.880833
      5 O4P         -0.8760     1.3130    -0.7180 o          1 TS6      -0.880833
      6 HS2P         1.9820     0.0170    -1.2530 hs         1 TS6       0.251800
@<TRIPOS>BOND
     1     1     2 1   
     2     1     3 1   
     3     1     4 1   
     4     1     5 1   
     5     3     6 1   
@<TRIPOS>SUBSTRUCTURE
     1 TS6         1 TEMP              0 ****  ****    0 ROOT
