@<TRIPOS>MOLECULE
TS6
    6     5     1     0     0
SMALL
No Charge or Current Charge


@<TRIPOS>ATOM
      1 P           -0.3710    -0.0030    -0.0160 p5         1 TS6       1.151900
      2 O1P         -0.9050    -0.0540     1.3700 o          1 TS6      -0.880833
      3 S2P          1.7050    -0.0240     0.0950 sh         1 TS6      -0.760200
      4 O3P         -0.7890    -1.1960    -0.7980 o          1 TS6      -0.880833
      5 O4P         -0.7700     1.2530    -0.7010 o          1 TS6      -0.880833
      6 HS2P         1.6700     0.0290    -1.2550 hs         1 TS6       0.251800
@<TRIPOS>BOND
     1     1     2 1   
     2     1     3 1   
     3     1     4 1   
     4     1     5 1   
     5     3     6 1   
@<TRIPOS>SUBSTRUCTURE
     1 TS6         1 TEMP              0 ****  ****    0 ROOT
