@<TRIPOS>MOLECULE
TS7
   67    72     1     0     0
SMALL
abcg2


@<TRIPOS>ATOM
      1 N1          43.4250    -5.7380    15.0970 n          1 TS7      -0.375800
      2 C4          43.4190    -1.5480    15.2260 ca         1 TS7      -0.148000
      3 C5          43.3950    -2.9410    15.3120 ca         1 TS7      -0.028300
      4 C6          44.5650    -3.6340    15.6250 ca         1 TS7      -0.121300
      5 C7          42.1080    -3.6770    15.0260 c6         1 TS7      -0.011100
      6 C8          42.1730    -5.1180    15.4720 cx         1 TS7       0.051400
      7 C10         43.6150    -6.7120    14.1730 c          1 TS7       0.619700
      8 C13         44.6070    -4.8220    18.2940 ca         1 TS7      -0.060000
      9 C15         44.9970    -6.6690    19.7890 ca         1 TS7       0.142100
     10 C17         45.0390    -6.9960    17.4010 ca         1 TS7      -0.060000
     11 C20         45.0230    -6.4270    22.1660 cy         1 TS7       0.134300
     12 C21         46.2760    -5.5750    22.4530 cy         1 TS7       0.131800
     13 C22         45.3940    -7.2210    23.4220 cy         1 TS7       0.131800
     14 C24         47.7170    -7.3470    25.5380 c3         1 TS7      -0.076400
     15 C26         42.1260    -8.4670    13.2240 ca         1 TS7      -0.075500
     16 C28         40.4770    -7.9660    11.5400 ca         1 TS7      -0.096000
     17 C1          45.7410    -2.9130    15.8370 ca         1 TS7      -0.058000
     18 C11         42.4760    -7.1180    13.2890 ca         1 TS7      -0.132600
     19 C12         44.7590    -5.6430    17.1850 ca         1 TS7      -0.135300
     20 C14         44.7230    -5.3180    19.5910 ca         1 TS7      -0.174500
     21 C16         45.1540    -7.5080    18.6810 ca         1 TS7      -0.174500
     22 C18         40.9110    -5.9130    15.5800 cx         1 TS7      -0.120400
     23 C19         41.6030    -5.4560    16.8320 cx         1 TS7      -0.120400
     24 C2          45.7690    -1.5310    15.7550 ca         1 TS7      -0.199000
     25 C25         48.3060    -6.8870    26.8700 c3         1 TS7      -0.089100
     26 C27         41.1200    -8.8870    12.3630 ca         1 TS7      -0.117500
     27 C29         40.8440    -6.6250    11.5830 ca         1 TS7      -0.117500
     28 C3          44.5930    -0.8430    15.4500 ca         1 TS7       0.138100
     29 C30         41.8350    -6.2000    12.4610 ca         1 TS7      -0.075500
     30 C9          44.6060    -5.1430    15.7540 c6         1 TS7       0.214300
     31 N2          46.7500    -6.6210    23.3880 nq         1 TS7      -0.698600
     32 O1          44.7080    -7.2700    14.0210 o          1 TS7      -0.606100
     33 O2          44.5480     0.5200    15.3570 oh         1 TS7      -0.539100
     34 O3          45.1300    -7.2560    21.0120 os         1 TS7      -0.330100
     35 H1          42.5140    -1.0030    14.9840 ha         1 TS7       0.128000
     36 H2          41.2730    -3.1750    15.5200 hc         1 TS7       0.059200
     37 H3          41.9040    -3.6280    13.9520 hc         1 TS7       0.059200
     38 H4          44.3880    -3.7710    18.1590 ha         1 TS7       0.126000
     39 H5          45.1560    -7.6550    16.5500 ha         1 TS7       0.126000
     40 H6          44.0600    -5.9170    22.1700 h1         1 TS7       0.060700
     41 H7          46.9400    -5.3700    21.6120 h1         1 TS7       0.060450
     42 H8          46.0150    -4.6340    22.9530 h1         1 TS7       0.060450
     43 H9          44.8060    -6.8970    24.2900 h1         1 TS7       0.060450
     44 H10         45.3570    -8.3080    23.3390 h1         1 TS7       0.060450
     45 H11         46.8380    -7.9720    25.7220 hc         1 TS7       0.047700
     46 H12         48.4390    -7.9690    25.0020 hc         1 TS7       0.047700
     47 H13         42.6360    -9.1800    13.8580 ha         1 TS7       0.122000
     48 H14         39.6980    -8.2940    10.8640 ha         1 TS7       0.114000
     49 H15         46.6530    -3.4460    16.0780 ha         1 TS7       0.121000
     50 H16         44.6030    -4.6440    20.4260 ha         1 TS7       0.122500
     51 H17         45.3710    -8.5560    18.8440 ha         1 TS7       0.122500
     52 H18         40.0030    -5.4150    15.2640 hc         1 TS7       0.082450
     53 H19         40.9450    -6.9670    15.3550 hc         1 TS7       0.082450
     54 H20         42.1110    -6.2120    17.4120 hc         1 TS7       0.082450
     55 H21         41.1830    -4.6410    17.4060 hc         1 TS7       0.082450
     56 H22         46.6900    -0.9850    15.9220 ha         1 TS7       0.116000
     57 H23         46.6110    -5.5260    25.1890 h1         1 TS7       0.030700
     58 H24         48.2020    -5.5700    24.4200 h1         1 TS7       0.030700
     59 H25         48.5860    -7.7390    27.4930 hc         1 TS7       0.032700
     60 H26         49.1990    -6.2770    26.7130 hc         1 TS7       0.032700
     61 H27         47.5860    -6.2850    27.4300 hc         1 TS7       0.032700
     62 H28         40.8410    -9.9320    12.3310 ha         1 TS7       0.116000
     63 H29         40.3580    -5.9070    10.9350 ha         1 TS7       0.116000
     64 H30         42.1180    -5.1570    12.4870 ha         1 TS7       0.122000
     65 H31         45.4610    -5.5090    15.1900 h1         1 TS7       0.096700
     66 H33         45.4210     0.8920    15.5410 ho         1 TS7       0.464000
     67 C23         47.3200    -6.1780    24.6460 c3         1 TS7       0.160800
@<TRIPOS>BOND
     1     1     6 1   
     2     1     7 1   
     3     1    30 1   
     4     2     3 ar  
     5     2    28 ar  
     6     2    35 1   
     7     3     4 ar  
     8     3     5 1   
     9     4    17 ar  
    10     4    30 1   
    11     5     6 1   
    12     5    36 1   
    13     5    37 1   
    14     6    22 1   
    15     6    23 1   
    16     7    18 1   
    17     7    32 2   
    18     8    19 ar  
    19     8    20 ar  
    20     8    38 1   
    21     9    20 ar  
    22     9    21 ar  
    23     9    34 1   
    24    10    19 ar  
    25    10    21 ar  
    26    10    39 1   
    27    11    12 1   
    28    11    13 1   
    29    11    34 1   
    30    11    40 1   
    31    12    31 1   
    32    12    41 1   
    33    12    42 1   
    34    13    31 1   
    35    13    43 1   
    36    13    44 1   
    37    14    25 1   
    38    14    45 1   
    39    14    46 1   
    40    14    67 1   
    41    15    18 ar  
    42    15    26 ar  
    43    15    47 1   
    44    16    26 ar  
    45    16    27 ar  
    46    16    48 1   
    47    17    24 ar  
    48    17    49 1   
    49    18    29 ar  
    50    19    30 1   
    51    20    50 1   
    52    21    51 1   
    53    22    23 1   
    54    22    52 1   
    55    22    53 1   
    56    23    54 1   
    57    23    55 1   
    58    24    28 ar  
    59    24    56 1   
    60    25    59 1   
    61    25    60 1   
    62    25    61 1   
    63    26    62 1   
    64    27    29 ar  
    65    27    63 1   
    66    28    33 1   
    67    29    64 1   
    68    30    65 1   
    69    31    67 1   
    70    33    66 1   
    71    57    67 1   
    72    58    67 1   
@<TRIPOS>SUBSTRUCTURE
     1 TS7         1 TEMP              0 ****  ****    0 ROOT
