@<TRIPOS>MOLECULE
TS7
   67    72     1     0     0
SMALL
No Charge or Current Charge


@<TRIPOS>ATOM
      1 N1          43.4320    -5.7460    15.0680 n          1 TS7      -0.375800
      2 C4          43.6410    -1.4810    15.2450 ca         1 TS7      -0.148000
      3 C5          43.5450    -2.8840    15.3090 ca         1 TS7      -0.028300
      4 C6          44.6680    -3.6470    15.7070 ca         1 TS7      -0.121300
      5 C7          42.2300    -3.5670    14.9300 c6         1 TS7      -0.011100
      6 C8          42.1660    -5.0480    15.3480 cx         1 TS7       0.051400
      7 C10         43.5910    -6.8830    14.2290 c          1 TS7       0.619700
      8 C13         44.1870    -4.9100    18.3310 ca         1 TS7      -0.060000
      9 C15         44.8350    -6.6490    19.9150 ca         1 TS7       0.142100
     10 C17         45.2450    -6.9460    17.5300 ca         1 TS7      -0.060000
     11 C20         44.6580    -6.3890    22.3710 cy         1 TS7       0.134300
     12 C21         45.7110    -5.2870    22.7540 cy         1 TS7       0.131800
     13 C22         45.0870    -7.0330    23.7360 cy         1 TS7       0.131800
     14 C24         47.9170    -7.3570    25.2330 c3         1 TS7      -0.076400
     15 C26         42.1880    -8.6610    13.1150 ca         1 TS7      -0.075500
     16 C28         40.4930    -8.1210    11.4520 ca         1 TS7      -0.096000
     17 C1          45.8700    -2.9900    16.0370 ca         1 TS7      -0.058000
     18 C11         42.4940    -7.2910    13.2710 ca         1 TS7      -0.132600
     19 C12         44.6750    -5.6870    17.2570 ca         1 TS7      -0.135300
     20 C14         44.2630    -5.3870    19.6510 ca         1 TS7      -0.174500
     21 C16         45.3210    -7.4220    18.8500 ca         1 TS7      -0.174500
     22 C18         40.8050    -5.7280    15.3600 cx         1 TS7      -0.120400
     23 C19         41.4520    -5.3390    16.6570 cx         1 TS7      -0.120400
     24 C2          45.9560    -1.5880    15.9730 ca         1 TS7      -0.199000
     25 C25         48.9300    -7.0630    26.3570 c3         1 TS7      -0.089100
     26 C27         41.1860    -9.0720    12.2180 ca         1 TS7      -0.117500
     27 C29         40.8120    -6.7590    11.5740 ca         1 TS7      -0.117500
     28 C3          44.8410    -0.8370    15.5770 ca         1 TS7       0.138100
     29 C30         41.8130    -6.3470    12.4710 ca         1 TS7      -0.075500
     30 C9          44.6020    -5.1830    15.8030 c6         1 TS7       0.214300
     31 N2          46.4120    -6.3780    23.4990 nq         1 TS7      -0.698600
     32 O1          44.6380    -7.5220    14.2370 o          1 TS7      -0.606100
     33 O2          44.9200     0.5220    15.5110 oh         1 TS7      -0.539100
     34 O3          44.9340    -7.1690    21.1890 os         1 TS7      -0.330100
     35 H1          42.7830    -0.8900    14.9360 ha         1 TS7       0.128000
     36 H2          41.3880    -3.0160    15.3700 hc         1 TS7       0.059200
     37 H3          42.0970    -3.4920    13.8440 hc         1 TS7       0.059200
     38 H4          43.7370    -3.9360    18.1480 ha         1 TS7       0.126000
     39 H5          45.6300    -7.5600    16.7190 ha         1 TS7       0.126000
     40 H6          43.6190    -6.0440    22.3580 h1         1 TS7       0.060700
     41 H7          46.2550    -4.8540    21.9060 h1         1 TS7       0.060450
     42 H8          45.2950    -4.4890    23.3820 h1         1 TS7       0.060450
     43 H9          44.5260    -6.6440    24.5950 h1         1 TS7       0.060450
     44 H10         45.0840    -8.1290    23.7490 h1         1 TS7       0.060450
     45 H11         47.0960    -7.9590    25.6430 hc         1 TS7       0.047700
     46 H12         48.4060    -7.9640    24.4610 hc         1 TS7       0.047700
     47 H13         42.7190    -9.4070    13.7020 ha         1 TS7       0.122000
     48 H14         39.7190    -8.4400    10.7570 ha         1 TS7       0.114000
     49 H15         46.7380    -3.5670    16.3500 ha         1 TS7       0.121000
     50 H16         43.8690    -4.7670    20.4510 ha         1 TS7       0.122500
     51 H17         45.7610    -8.3960    19.0490 ha         1 TS7       0.122500
     52 H18         39.9460    -5.1500    15.0290 hc         1 TS7       0.082450
     53 H19         40.7320    -6.7930    15.1620 hc         1 TS7       0.082450
     54 H20         41.8300    -6.1470    17.2790 hc         1 TS7       0.082450
     55 H21         41.0250    -4.5070    17.2100 hc         1 TS7       0.082450
     56 H22         46.8910    -1.0970    16.2330 ha         1 TS7       0.116000
     57 H23         46.8290    -5.4790    25.3510 h1         1 TS7       0.030700
     58 H24         48.1730    -5.4770    24.1850 h1         1 TS7       0.030700
     59 H25         49.3090    -7.9990    26.7850 hc         1 TS7       0.032700
     60 H26         49.7820    -6.4920    25.9700 hc         1 TS7       0.032700
     61 H27         48.4590    -6.4840    27.1600 hc         1 TS7       0.032700
     62 H28         40.9490   -10.1290    12.1160 ha         1 TS7       0.116000
     63 H29         40.2900    -6.0230    10.9670 ha         1 TS7       0.116000
     64 H30         42.0710    -5.2940    12.5260 ha         1 TS7       0.122000
     65 H31         45.5170    -5.5360    15.3040 h1         1 TS7       0.096700
     66 H33         45.8260     0.7910    15.7740 ho         1 TS7       0.464000
     67 C23         47.3460    -6.0770    24.5880 c3         1 TS7       0.160800
@<TRIPOS>BOND
     1     1     6 1   
     2     1     7 1   
     3     1    30 1   
     4     2     3 ar  
     5     2    28 ar  
     6     2    35 1   
     7     3     4 ar  
     8     3     5 1   
     9     4    17 ar  
    10     4    30 1   
    11     5     6 1   
    12     5    36 1   
    13     5    37 1   
    14     6    22 1   
    15     6    23 1   
    16     7    18 1   
    17     7    32 2   
    18     8    19 ar  
    19     8    20 ar  
    20     8    38 1   
    21     9    20 ar  
    22     9    21 ar  
    23     9    34 1   
    24    10    19 ar  
    25    10    21 ar  
    26    10    39 1   
    27    11    12 1   
    28    11    13 1   
    29    11    34 1   
    30    11    40 1   
    31    12    31 1   
    32    12    41 1   
    33    12    42 1   
    34    13    31 1   
    35    13    43 1   
    36    13    44 1   
    37    14    25 1   
    38    14    45 1   
    39    14    46 1   
    40    14    67 1   
    41    15    18 ar  
    42    15    26 ar  
    43    15    47 1   
    44    16    26 ar  
    45    16    27 ar  
    46    16    48 1   
    47    17    24 ar  
    48    17    49 1   
    49    18    29 ar  
    50    19    30 1   
    51    20    50 1   
    52    21    51 1   
    53    22    23 1   
    54    22    52 1   
    55    22    53 1   
    56    23    54 1   
    57    23    55 1   
    58    24    28 ar  
    59    24    56 1   
    60    25    59 1   
    61    25    60 1   
    62    25    61 1   
    63    26    62 1   
    64    27    29 ar  
    65    27    63 1   
    66    28    33 1   
    67    29    64 1   
    68    30    65 1   
    69    31    67 1   
    70    33    66 1   
    71    57    67 1   
    72    58    67 1   
@<TRIPOS>SUBSTRUCTURE
     1 TS7         1 TEMP              0 ****  ****    0 ROOT
