@<TRIPOS>MOLECULE
TS8
   44    44     1     0     0
SMALL
No Charge or Current Charge


@<TRIPOS>ATOM
      1 S           -1.0290     3.3920    -0.3230 sh         1 TS8      -0.361800
      2 C1          -0.5330     1.7190     0.3320 c6         1 TS8       0.292300
      3 C2          -1.5080     0.6010    -0.1490 c6         1 TS8       0.141300
      4 O2          -2.8360     0.8010     0.4030 os         1 TS8      -0.448100
      5 C3          -0.9570    -0.8010     0.2620 c6         1 TS8       0.155300
      6 O3          -1.7470    -1.8560    -0.3450 os         1 TS8      -0.449100
      7 C4           0.5300    -0.9770    -0.1650 c6         1 TS8       0.131300
      8 O4           1.0300    -2.2320     0.3670 os         1 TS8      -0.456100
      9 C5           1.3800     0.2340     0.3330 c6         1 TS8       0.144300
     10 O5           0.7930     1.4620    -0.1580 os         1 TS8      -0.421000
     11 C6           2.8600     0.2060    -0.1490 c3         1 TS8       0.172600
     12 O6           3.5790     1.3040     0.4510 os         1 TS8      -0.445100
     13 CAD          5.5150     2.6560     0.8360 c3         1 TS8      -0.155100
     14 CAE          2.2950    -4.2600     0.4350 c3         1 TS8      -0.156100
     15 CAF         -5.1140     1.5110     0.4900 c3         1 TS8      -0.155100
     16 CAG         -2.8910    -2.3230     0.2460 c          1 TS8       0.603100
     17 OAH          5.5210     0.7220    -0.6280 o          1 TS8      -0.482000
     18 OAI          2.3680    -2.7180    -1.4330 o          1 TS8      -0.466000
     19 OAJ         -3.7430     1.7240    -1.4950 o          1 TS8      -0.463000
     20 OAK         -3.2790    -2.0090     1.3620 o          1 TS8      -0.471000
     21 CAW          4.9010     1.4570     0.1290 c          1 TS8       0.595100
     22 CAX          1.9200    -3.0030    -0.3330 c          1 TS8       0.598100
     23 CAY         -3.8300     1.4080    -0.3180 c          1 TS8       0.604100
     24 CAZ         -3.5590    -3.3910    -0.6060 c3         1 TS8      -0.157100
     25 HS           0.0450     4.0410     0.1840 hs         1 TS8       0.209800
     26 H1          -0.5240     1.7640     1.4310 h2         1 TS8       0.065700
     27 H2          -1.5510     0.6280    -1.2480 h1         1 TS8       0.109700
     28 H3          -1.0000    -0.8960     1.3580 h1         1 TS8       0.095700
     29 H4           0.5560    -1.0050    -1.2640 h1         1 TS8       0.102700
     30 H5           1.3800     0.2520     1.4330 h1         1 TS8       0.062700
     31 H6           3.3170    -0.7450     0.1500 h1         1 TS8       0.067200
     32 H6A          2.8800     0.2710    -1.2460 h1         1 TS8       0.067200
     33 HAD          6.5740     2.7920     0.5940 hc         1 TS8       0.070367
     34 HADA         4.9230     3.5470     0.5990 hc         1 TS8       0.070367
     35 HADB         5.3520     2.5510     1.9140 hc         1 TS8       0.070367
     36 HAE          1.3790    -4.8060     0.6840 hc         1 TS8       0.073700
     37 HAEA         3.0120    -4.8870    -0.1070 hc         1 TS8       0.073700
     38 HAEB         2.6690    -3.9710     1.4230 hc         1 TS8       0.073700
     39 HAF         -5.3480     0.5250     0.9070 hc         1 TS8       0.072700
     40 HAFA        -4.9170     2.1030     1.3900 hc         1 TS8       0.072700
     41 HAFB        -5.9490     1.9150    -0.0930 hc         1 TS8       0.072700
     42 HAZ         -2.8130    -4.1490    -0.8700 hc         1 TS8       0.072700
     43 HAZA        -4.4340    -3.8330    -0.1190 hc         1 TS8       0.072700
     44 HAZB        -3.8050    -2.9590    -1.5820 hc         1 TS8       0.072700
@<TRIPOS>BOND
     1     1     2 1   
     2     1    25 1   
     3     2     3 1   
     4     2    10 1   
     5     2    26 1   
     6     3     4 1   
     7     3     5 1   
     8     3    27 1   
     9     4    23 1   
    10     5     6 1   
    11     5     7 1   
    12     5    28 1   
    13     6    16 1   
    14     7     8 1   
    15     7     9 1   
    16     7    29 1   
    17     8    22 1   
    18     9    10 1   
    19     9    11 1   
    20     9    30 1   
    21    11    12 1   
    22    11    31 1   
    23    11    32 1   
    24    12    21 1   
    25    13    21 1   
    26    13    33 1   
    27    13    34 1   
    28    13    35 1   
    29    14    22 1   
    30    14    36 1   
    31    14    37 1   
    32    14    38 1   
    33    15    23 1   
    34    15    39 1   
    35    15    40 1   
    36    15    41 1   
    37    16    20 2   
    38    16    24 1   
    39    17    21 2   
    40    18    22 2   
    41    19    23 2   
    42    24    42 1   
    43    24    43 1   
    44    24    44 1   
@<TRIPOS>SUBSTRUCTURE
     1 TS8         1 TEMP              0 ****  ****    0 ROOT
