@<TRIPOS>MOLECULE
TS8
   44    44     1     0     0
SMALL
bcc


@<TRIPOS>ATOM
      1 S           -0.9760     3.3980    -0.2440 sh         1 TS8      -0.313900
      2 C1          -0.4560     1.7670     0.3290 c6         1 TS8       0.221200
      3 C2          -1.4150     0.7040    -0.2110 c6         1 TS8       0.118100
      4 O2          -2.6990     0.8820     0.3580 os         1 TS8      -0.424900
      5 C3          -0.9170    -0.6650     0.2290 c6         1 TS8       0.132100
      6 O3          -1.7080    -1.6600    -0.4010 os         1 TS8      -0.425900
      7 C4           0.5300    -0.8690    -0.1960 c6         1 TS8       0.108100
      8 O4           0.9560    -2.0930     0.3870 os         1 TS8      -0.432900
      9 C5           1.3800     0.2920     0.3290 c6         1 TS8       0.121100
     10 O5           0.8350     1.5030    -0.1520 os         1 TS8      -0.374600
     11 C6           2.8080     0.2110    -0.1620 c3         1 TS8       0.149400
     12 O6           3.5060     1.3050     0.4250 os         1 TS8      -0.421900
     13 CAD          5.3920     2.6340     0.8200 c3         1 TS8      -0.155100
     14 CAE          1.8470    -4.2530     0.4320 c3         1 TS8      -0.156100
     15 CAF         -4.9570     1.4760     0.4150 c3         1 TS8      -0.155100
     16 CAG         -2.4680    -2.4840     0.3370 c          1 TS8       0.652100
     17 OAH          5.4030     0.6570    -0.5540 o          1 TS8      -0.531000
     18 OAI          1.8300    -2.8590    -1.5290 o          1 TS8      -0.515000
     19 OAJ         -3.6090     1.5620    -1.5750 o          1 TS8      -0.512000
     20 OAK         -2.5350    -2.4360     1.5350 o          1 TS8      -0.520000
     21 CAW          4.8040     1.4280     0.1520 c          1 TS8       0.644100
     22 CAX          1.5610    -3.0220    -0.3700 c          1 TS8       0.647100
     23 CAY         -3.7130     1.3220    -0.4030 c          1 TS8       0.653100
     24 CAZ         -3.2000    -3.4520    -0.5400 c3         1 TS8      -0.157100
     25 HS          -0.3640     4.1000     0.7150 hs         1 TS8       0.209800
     26 H1          -0.4760     1.7610     1.4260 h2         1 TS8       0.065700
     27 H2          -1.4480     0.7600    -1.3030 h1         1 TS8       0.109700
     28 H3          -0.9890    -0.7420     1.3180 h1         1 TS8       0.095700
     29 H4           0.6000    -0.9100    -1.2870 h1         1 TS8       0.102700
     30 H5           1.3800     0.2720     1.4280 h1         1 TS8       0.062700
     31 H6           3.2610    -0.7320     0.1490 h1         1 TS8       0.067200
     32 H6A          2.8470     0.2700    -1.2530 h1         1 TS8       0.067200
     33 HAD          6.4630     2.6790     0.6440 hc         1 TS8       0.070367
     34 HADA         4.9310     3.5410     0.4290 hc         1 TS8       0.070367
     35 HADB         5.2040     2.6120     1.8930 hc         1 TS8       0.070367
     36 HAE          0.9180    -4.6990     0.7880 hc         1 TS8       0.073700
     37 HAEA         2.3830    -4.9810    -0.1700 hc         1 TS8       0.073700
     38 HAEB         2.4420    -4.0040     1.3100 hc         1 TS8       0.073700
     39 HAF         -5.1460     0.5880     1.0160 hc         1 TS8       0.072700
     40 HAFA        -4.8370     2.3140     1.1050 hc         1 TS8       0.072700
     41 HAFB        -5.8110     1.6710    -0.2260 hc         1 TS8       0.072700
     42 HAZ         -2.4960    -4.0430    -1.1260 hc         1 TS8       0.072700
     43 HAZA        -3.8110    -4.1180     0.0610 hc         1 TS8       0.072700
     44 HAZB        -3.8390    -2.9210    -1.2460 hc         1 TS8       0.072700
@<TRIPOS>BOND
     1     1     2 1   
     2     1    25 1   
     3     2     3 1   
     4     2    10 1   
     5     2    26 1   
     6     3     4 1   
     7     3     5 1   
     8     3    27 1   
     9     4    23 1   
    10     5     6 1   
    11     5     7 1   
    12     5    28 1   
    13     6    16 1   
    14     7     8 1   
    15     7     9 1   
    16     7    29 1   
    17     8    22 1   
    18     9    10 1   
    19     9    11 1   
    20     9    30 1   
    21    11    12 1   
    22    11    31 1   
    23    11    32 1   
    24    12    21 1   
    25    13    21 1   
    26    13    33 1   
    27    13    34 1   
    28    13    35 1   
    29    14    22 1   
    30    14    36 1   
    31    14    37 1   
    32    14    38 1   
    33    15    23 1   
    34    15    39 1   
    35    15    40 1   
    36    15    41 1   
    37    16    20 2   
    38    16    24 1   
    39    17    21 2   
    40    18    22 2   
    41    19    23 2   
    42    24    42 1   
    43    24    43 1   
    44    24    44 1   
@<TRIPOS>SUBSTRUCTURE
     1 TS8         1 TEMP              0 ****  ****    0 ROOT
