@<TRIPOS>MOLECULE
TS9
   23    22     1     0     0
SMALL
bcc


@<TRIPOS>ATOM
      1 N          127.3940    84.2850   112.2650 n8         1 TS9      -0.907800
      2 CA         127.8690    85.1310   113.3510 c3         1 TS9       0.043500
      3 C          128.1430    84.2720   114.6220 c          1 TS9       0.931600
      4 CB         126.8630    86.2830   113.6380 c3         1 TS9       0.201800
      5 OG3        125.7570    85.6850   114.3020 oh         1 TS9      -0.562800
      6 CG2        127.4800    87.3760   114.5060 c3         1 TS9      -0.116100
      7 CG1        126.3560    86.8710   112.3010 c3         1 TS9       0.106100
      8 OD2        127.4870    87.3180   111.5710 oh         1 TS9      -0.595800
      9 CD1        125.3360    87.9940   112.4510 c3         1 TS9      -0.125100
     10 OXT        128.7230    84.8350   115.5720 o          1 TS9      -0.835300
     11 O          127.8000    83.0740   114.5790 o          1 TS9      -0.835300
     12 H          127.8670    84.5150   111.4040 hn         1 TS9       0.336800
     13 H2         127.6150    83.3260   112.4990 hn         1 TS9       0.336800
     14 HA         128.8240    85.6080   113.0950 h1         1 TS9       0.025700
     15 HG3        125.2330    86.3790   114.7140 ho         1 TS9       0.365000
     16 HG21       126.7510    88.1590   114.7280 hc         1 TS9       0.039367
     17 HG22       127.8370    86.9670   115.4460 hc         1 TS9       0.039367
     18 HG23       128.3230    87.8530   114.0070 hc         1 TS9       0.039367
     19 HG1        125.8670    86.0460   111.7700 h1         1 TS9       0.062700
     20 HD2        127.1850    87.6180   110.7080 ho         1 TS9       0.376000
     21 HD11       124.9690    88.2940   111.4660 hc         1 TS9       0.024700
     22 HD12       124.4620    87.6780   113.0220 hc         1 TS9       0.024700
     23 HD13       125.7550    88.8800   112.9290 hc         1 TS9       0.024700
@<TRIPOS>BOND
     1     1     2 1   
     2     1    12 1   
     3     1    13 1   
     4     2     3 1   
     5     2     4 1   
     6     2    14 1   
     7     3    10 1   
     8     3    11 1   
     9     4     5 1   
    10     4     6 1   
    11     4     7 1   
    12     5    15 1   
    13     6    16 1   
    14     6    17 1   
    15     6    18 1   
    16     7     8 1   
    17     7     9 1   
    18     7    19 1   
    19     8    20 1   
    20     9    21 1   
    21     9    22 1   
    22     9    23 1   
@<TRIPOS>SUBSTRUCTURE
     1 TS9         1 TEMP              0 ****  ****    0 ROOT
