@<TRIPOS>MOLECULE
TS9
   23    22     1     0     0
SMALL
No Charge or Current Charge


@<TRIPOS>ATOM
      1 N          127.2810    83.9590   112.4000 n8         1 TS9      -0.907800
      2 CA         127.8080    85.0070   113.3830 c3         1 TS9       0.043500
      3 C          128.4250    84.4640   114.7470 c          1 TS9       0.931600
      4 CB         126.8000    86.2030   113.6340 c3         1 TS9       0.201800
      5 OG3        125.5900    85.6750   114.2040 oh         1 TS9      -0.562800
      6 CG2        127.3680    87.2210   114.6670 c3         1 TS9      -0.116100
      7 CG1        126.4320    86.9220   112.2700 c3         1 TS9       0.106100
      8 OD2        127.5960    87.4970   111.6530 oh         1 TS9      -0.595800
      9 CD1        125.3570    88.0340   112.3640 c3         1 TS9      -0.125100
     10 OXT        129.5810    84.7750   115.0230 o          1 TS9      -0.835300
     11 O          127.8280    83.5990   115.3860 o          1 TS9      -0.835300
     12 H          127.0750    84.4120   111.5050 hn         1 TS9       0.336800
     13 H2         128.0290    83.2910   112.1850 hn         1 TS9       0.336800
     14 HA         128.6690    85.4500   112.8650 h1         1 TS9       0.025700
     15 HG3        124.9650    86.4230   114.2810 ho         1 TS9       0.365000
     16 HG21       126.6830    88.0600   114.8270 hc         1 TS9       0.039367
     17 HG22       127.5250    86.7560   115.6480 hc         1 TS9       0.039367
     18 HG23       128.3280    87.6270   114.3270 hc         1 TS9       0.039367
     19 HG1        126.0170    86.1560   111.6000 h1         1 TS9       0.062700
     20 HD2        127.2950    87.9650   110.8470 ho         1 TS9       0.376000
     21 HD11       125.0990    88.3970   111.3620 hc         1 TS9       0.024700
     22 HD12       124.4340    87.6600   112.8220 hc         1 TS9       0.024700
     23 HD13       125.7100    88.8930   112.9460 hc         1 TS9       0.024700
@<TRIPOS>BOND
     1     1     2 1   
     2     1    12 1   
     3     1    13 1   
     4     2     3 1   
     5     2     4 1   
     6     2    14 1   
     7     3    10 1   
     8     3    11 1   
     9     4     5 1   
    10     4     6 1   
    11     4     7 1   
    12     5    15 1   
    13     6    16 1   
    14     6    17 1   
    15     6    18 1   
    16     7     8 1   
    17     7     9 1   
    18     7    19 1   
    19     8    20 1   
    20     9    21 1   
    21     9    22 1   
    22     9    23 1   
@<TRIPOS>SUBSTRUCTURE
     1 TS9         1 TEMP              0 ****  ****    0 ROOT
