@<TRIPOS>MOLECULE
TSA
   26    27     1     0     0
SMALL
abcg2


@<TRIPOS>ATOM
      1 C1          27.4600    17.7330    49.9040 c6         1 TSA      -0.151800
      2 C2          27.3780    18.4050    51.2460 c2         1 TSA      -0.112200
      3 C3          26.5690    17.9990    52.2210 c2         1 TSA      -0.264200
      4 C4          25.6720    16.8070    52.0990 c6         1 TSA       0.176500
      5 O5          24.3320    17.2850    52.1050 oh         1 TSA      -0.741000
      6 C5          25.9570    16.0100    50.8160 c6         1 TSA       0.164300
      7 C6          26.1710    16.9630    49.6540 c6         1 TSA      -0.071400
      8 O7          27.0260    15.0940    50.9460 os         1 TSA      -0.474000
      9 C8          28.3570    15.5830    50.9590 c6         1 TSA       0.035300
     10 C9          28.5920    16.6890    49.9280 c6         1 TSA      -0.059400
     11 C10         27.7880    18.7670    48.7880 c          1 TSA       0.731000
     12 O1          27.1300    18.6930    47.7330 o          1 TSA      -0.749000
     13 O2          28.7150    19.5660    49.0330 o          1 TSA      -0.749000
     14 C11         28.9130    15.8830    52.3800 c          1 TSA       0.711000
     15 O3          30.0370    16.4280    52.4000 o          1 TSA      -0.746000
     16 O4          28.2650    15.4770    53.3610 o          1 TSA      -0.746000
     17 H2          28.0410    19.2460    51.4150 ha         1 TSA       0.182000
     18 H3          26.5570    18.5280    53.1690 ha         1 TSA       0.147000
     19 H4          25.8440    16.1480    52.9580 h1         1 TSA       0.064700
     20 HO5         23.7490    16.5270    52.2100 ho         1 TSA       0.462000
     21 H5          25.0830    15.3750    50.6240 h1         1 TSA       0.008700
     22 H61         25.3150    17.6370    49.5740 hc         1 TSA       0.037200
     23 H62         26.2290    16.4080    48.7140 hc         1 TSA       0.037200
     24 H8          28.9570    14.7230    50.6270 h1         1 TSA       0.020700
     25 H91         28.6570    16.2450    48.9280 hc         1 TSA       0.042700
     26 H92         29.5540    17.1550    50.1330 hc         1 TSA       0.042700
@<TRIPOS>BOND
     1     1     2 1   
     2     1     7 1   
     3     1    10 1   
     4     1    11 1   
     5     2     3 2   
     6     2    17 1   
     7     3     4 1   
     8     3    18 1   
     9     4     5 1   
    10     4     6 1   
    11     4    19 1   
    12     5    20 1   
    13     6     7 1   
    14     6     8 1   
    15     6    21 1   
    16     7    22 1   
    17     7    23 1   
    18     8     9 1   
    19     9    10 1   
    20     9    14 1   
    21     9    24 1   
    22    10    25 1   
    23    10    26 1   
    24    11    12 1   
    25    11    13 1   
    26    14    15 1   
    27    14    16 1   
@<TRIPOS>SUBSTRUCTURE
     1 TSA         1 TEMP              0 ****  ****    0 ROOT
