@<TRIPOS>MOLECULE
TSA
   26    27     1     0     0
SMALL
No Charge or Current Charge


@<TRIPOS>ATOM
      1 C1          27.4240    17.7750    49.8680 c6         1 TSA      -0.151800
      2 C2          27.2350    18.5020    51.2040 c2         1 TSA      -0.112200
      3 C3          26.4610    18.0250    52.1970 c2         1 TSA      -0.264200
      4 C4          25.6590    16.7300    52.1020 c6         1 TSA       0.176500
      5 O5          24.2740    17.1160    52.1040 oh         1 TSA      -0.741000
      6 C5          26.0100    15.8960    50.8110 c6         1 TSA       0.164300
      7 C6          26.2010    16.8390    49.5970 c6         1 TSA      -0.071400
      8 O7          27.1760    15.0230    50.9250 os         1 TSA      -0.474000
      9 C8          28.5010    15.6550    51.0060 c6         1 TSA       0.035300
     10 C9          28.6570    16.8130    49.9680 c6         1 TSA      -0.059400
     11 C10         27.6240    18.7880    48.6880 c          1 TSA       0.731000
     12 O1          26.6230    19.3500    48.2650 o          1 TSA      -0.749000
     13 O2          28.7110    19.3480    48.6230 o          1 TSA      -0.749000
     14 C11         29.0660    15.9830    52.4520 c          1 TSA       0.711000
     15 O3          30.2550    15.7280    52.6060 o          1 TSA      -0.746000
     16 O4          28.3190    15.8550    53.4130 o          1 TSA      -0.746000
     17 H2          27.7790    19.4410    51.3270 ha         1 TSA       0.182000
     18 H3          26.3690    18.5720    53.1350 ha         1 TSA       0.147000
     19 H4          25.8610    16.1060    52.9850 h1         1 TSA       0.064700
     20 HO5         23.7530    16.2820    52.0860 ho         1 TSA       0.462000
     21 H5          25.1550    15.2370    50.5980 h1         1 TSA       0.008700
     22 H61         25.2850    17.4260    49.4470 hc         1 TSA       0.037200
     23 H62         26.3490    16.2540    48.6790 hc         1 TSA       0.037200
     24 H8          29.1950    14.8780    50.6530 h1         1 TSA       0.020700
     25 H91         28.8410    16.3680    48.9800 hc         1 TSA       0.042700
     26 H92         29.5660    17.3820    50.2050 hc         1 TSA       0.042700
@<TRIPOS>BOND
     1     1     2 1   
     2     1     7 1   
     3     1    10 1   
     4     1    11 1   
     5     2     3 2   
     6     2    17 1   
     7     3     4 1   
     8     3    18 1   
     9     4     5 1   
    10     4     6 1   
    11     4    19 1   
    12     5    20 1   
    13     6     7 1   
    14     6     8 1   
    15     6    21 1   
    16     7    22 1   
    17     7    23 1   
    18     8     9 1   
    19     9    10 1   
    20     9    14 1   
    21     9    24 1   
    22    10    25 1   
    23    10    26 1   
    24    11    12 1   
    25    11    13 1   
    26    14    15 1   
    27    14    16 1   
@<TRIPOS>SUBSTRUCTURE
     1 TSA         1 TEMP              0 ****  ****    0 ROOT
