@<TRIPOS>MOLECULE
TSB
   51    53     1     0     0
SMALL
abcg2


@<TRIPOS>ATOM
      1 CG2          3.4640    -1.8570     4.3640 c3         1 TSB      -0.134100
      2 N            2.5240    -1.1300     1.5520 n8         1 TSB      -1.015200
      3 CA           1.7470    -0.9220     2.7490 c3         1 TSB       0.055500
      4 CB           2.5350    -0.6930     4.0630 c3         1 TSB       0.136300
      5 OG1          3.2090     0.5450     4.0390 oh         1 TSB      -0.638000
      6 S1          -1.4870     1.4110     3.2600 s6         1 TSB       1.439500
      7 O1S         -2.4990     0.9430     4.1740 o          1 TSB      -0.530000
      8 O2S         -0.9550     2.7400     3.3560 o          1 TSB      -0.530000
      9 O5          -1.9870     1.2930     1.7620 os         1 TSB      -0.541700
     10 C5          -2.4600     0.0260     1.2730 c3         1 TSB       0.189600
     11 C4          -2.7940     0.2100    -0.1910 c5         1 TSB       0.172300
     12 O4          -1.6630     0.7190    -0.8930 os         1 TSB      -0.424000
     13 C3          -3.1520    -1.1290    -0.8390 c5         1 TSB       0.105300
     14 O3          -4.1460    -0.9070    -1.8020 oh         1 TSB      -0.699000
     15 C2          -1.8200    -1.5120    -1.4990 c5         1 TSB       0.080300
     16 O2          -1.9310    -2.3710    -2.5900 oh         1 TSB      -0.688000
     17 C1          -1.3360    -0.1410    -1.9540 c5         1 TSB       0.314300
     18 N9           0.0660    -0.0460    -2.2370 na         1 TSB      -0.284300
     19 C8           1.1250    -0.3530    -1.4190 cc         1 TSB       0.425700
     20 N7           2.2780    -0.1110    -1.9650 nd         1 TSB      -0.558100
     21 C7           1.9760     0.3850    -3.2080 ca         1 TSB      -0.098600
     22 C6           2.7710     0.8320    -4.2790 ca         1 TSB       0.450900
     23 N6           4.1040     0.8300    -4.2390 nv         1 TSB      -1.067900
     24 N1           2.1490     1.2720    -5.3800 nb         1 TSB      -0.302000
     25 C10          0.8190     1.2690    -5.4170 ca         1 TSB       0.182900
     26 N3          -0.0280     0.8740    -4.4820 nb         1 TSB      -0.217000
     27 C9           0.6060     0.4410    -3.3960 ca         1 TSB       0.143500
     28 HG21         2.9090    -2.7950     4.4070 hc         1 TSB       0.047700
     29 HG22         4.2430    -1.9640     3.6070 hc         1 TSB       0.047700
     30 HG23         3.9530    -1.7120     5.3270 hc         1 TSB       0.047700
     31 HN11         3.1190    -0.3390     1.3420 hn         1 TSB       0.424000
     32 HN12         3.1150    -1.9440     1.6470 hn         1 TSB       0.424000
     33 HA           1.1220    -1.8090     2.9020 h1         1 TSB       0.068700
     34 HB           1.8090    -0.6160     4.8780 h1         1 TSB       0.079700
     35 HG1          3.9780     0.4720     3.4630 ho         1 TSB       0.444000
     36 HN8         -0.4550    -0.5010     3.9750 hn         1 TSB       0.339500
     37 H5'1        -1.6890    -0.7370     1.4090 h1         1 TSB       0.048200
     38 H5'2        -3.3560    -0.2810     1.8160 h1         1 TSB       0.048200
     39 H4          -3.6280     0.9120    -0.2840 h1         1 TSB       0.108700
     40 H3          -3.4670    -1.8740    -0.0960 h1         1 TSB       0.048700
     41 HO3         -4.1650    -1.6700    -2.3910 ho         1 TSB       0.525000
     42 H2          -1.1430    -1.9110    -0.7320 h1         1 TSB       0.048700
     43 HO2         -1.9340    -3.2800    -2.2740 ho         1 TSB       0.513000
     44 H1          -1.8490     0.1440    -2.8790 h2         1 TSB       0.121700
     45 H8           1.0040    -0.7480    -0.4210 h5         1 TSB       0.078800
     46 HN61         4.6370     1.1660    -5.0220 hn         1 TSB       0.505500
     47 HN62         4.5990     0.5170    -3.4230 hn         1 TSB       0.505500
     48 H6           0.3780     1.6390    -6.3360 h5         1 TSB       0.046100
     49 C            0.8330     0.2680     2.5220 c          1 TSB       0.633100
     50 O            1.0260     1.1360     1.7110 o          1 TSB      -0.493100
     51 N8          -0.2770     0.2750     3.3480 ns         1 TSB      -0.629300
@<TRIPOS>BOND
     1     1     4 1   
     2     1    28 1   
     3     1    29 1   
     4     1    30 1   
     5     2     3 1   
     6     2    31 1   
     7     2    32 1   
     8     3     4 1   
     9     3    33 1   
    10     3    49 1   
    11     4     5 1   
    12     4    34 1   
    13     5    35 1   
    14     6     7 2   
    15     6     8 2   
    16     6     9 1   
    17     6    51 1   
    18     9    10 1   
    19    10    11 1   
    20    10    37 1   
    21    10    38 1   
    22    11    12 1   
    23    11    13 1   
    24    11    39 1   
    25    12    17 1   
    26    13    14 1   
    27    13    15 1   
    28    13    40 1   
    29    14    41 1   
    30    15    16 1   
    31    15    17 1   
    32    15    42 1   
    33    16    43 1   
    34    17    18 1   
    35    17    44 1   
    36    18    19 1   
    37    18    27 1   
    38    19    20 2   
    39    19    45 1   
    40    20    21 1   
    41    21    22 ar  
    42    21    27 ar  
    43    22    23 1   
    44    22    24 ar  
    45    23    46 1   
    46    23    47 1   
    47    24    25 ar  
    48    25    26 ar  
    49    25    48 1   
    50    26    27 ar  
    51    36    51 1   
    52    49    50 2   
    53    49    51 1   
@<TRIPOS>SUBSTRUCTURE
     1 TSB         1 TEMP              0 ****  ****    0 ROOT
