@<TRIPOS>MOLECULE
TSB
   51    53     1     0     0
SMALL
No Charge or Current Charge


@<TRIPOS>ATOM
      1 CG2          4.8050     0.6160     2.3340 c3         1 TSB      -0.134100
      2 N            2.3550    -1.2960     2.1930 n8         1 TSB      -1.015200
      3 CA           2.3140     0.0760     2.8430 c3         1 TSB       0.055500
      4 CB           3.3360     1.0700     2.1980 c3         1 TSB       0.136300
      5 OG1          3.0490     1.2700     0.8120 oh         1 TSB      -0.638000
      6 S1          -1.7370    -0.0060     3.1890 s6         1 TSB       1.439500
      7 O1S         -2.2910    -1.3370     3.4540 o          1 TSB      -0.530000
      8 O2S         -1.9170     1.0930     4.1430 o          1 TSB      -0.530000
      9 O5          -2.2260     0.4990     1.7020 os         1 TSB      -0.541700
     10 C5          -2.8880    -0.4710     0.8680 c3         1 TSB       0.189600
     11 C4          -3.3050     0.2060    -0.4720 c5         1 TSB       0.172300
     12 O4          -2.1450     0.6570    -1.2160 os         1 TSB      -0.424000
     13 C3          -4.0270    -0.7520    -1.4720 c5         1 TSB       0.105300
     14 O3          -4.7130    -0.0650    -2.5250 oh         1 TSB      -0.699000
     15 C2          -2.8080    -1.5270    -2.0560 c5         1 TSB       0.080300
     16 O2          -3.1360    -2.0910    -3.3420 oh         1 TSB      -0.688000
     17 C1          -1.7070    -0.3960    -2.1100 c5         1 TSB       0.314300
     18 N9          -0.3230    -0.7440    -1.7850 na         1 TSB      -0.284300
     19 C8           0.1070    -1.7530    -0.9150 cc         1 TSB       0.425700
     20 N7           1.4420    -1.7250    -0.7480 nd         1 TSB      -0.558100
     21 C7           1.8450    -0.6760    -1.5770 ca         1 TSB      -0.098600
     22 C6           3.1340    -0.1610    -1.8040 ca         1 TSB       0.450900
     23 N6           4.2270    -0.6260    -1.1420 nv         1 TSB      -1.067900
     24 N1           3.3370     0.8690    -2.6400 nb         1 TSB      -0.302000
     25 C10          2.2310     1.3710    -3.2410 ca         1 TSB       0.182900
     26 N3           0.9540     0.9510    -3.0700 nb         1 TSB      -0.217000
     27 C9           0.7900    -0.0820    -2.2190 ca         1 TSB       0.143500
     28 HG21         5.0640     0.4660     3.3890 hc         1 TSB       0.047700
     29 HG22         4.9900    -0.3230     1.7990 hc         1 TSB       0.047700
     30 HG23         5.4810     1.3780     1.9280 hc         1 TSB       0.047700
     31 HN11         2.0950    -1.2160     1.1960 hn         1 TSB       0.424000
     32 HN12         3.3240    -1.6310     2.1580 hn         1 TSB       0.424000
     33 HA           2.6340    -0.0720     3.8840 h1         1 TSB       0.068700
     34 HB           3.2480     2.0280     2.7320 h1         1 TSB       0.079700
     35 HG1          3.5100     0.5570     0.3040 ho         1 TSB       0.444000
     36 HN8          0.1330    -1.1610     2.7460 hn         1 TSB       0.339500
     37 H5'1        -2.2330    -1.3280     0.6710 h1         1 TSB       0.048200
     38 H5'2        -3.7980    -0.8460     1.3570 h1         1 TSB       0.048200
     39 H4          -3.9360     1.0710    -0.2280 h1         1 TSB       0.108700
     40 H3          -4.7180    -1.4310    -0.9520 h1         1 TSB       0.048700
     41 HO3         -4.5120    -0.6190    -3.3220 ho         1 TSB       0.525000
     42 H2          -2.5210    -2.3280    -1.3620 h1         1 TSB       0.048700
     43 HO2         -2.4580    -2.7760    -3.5570 ho         1 TSB       0.513000
     44 H1          -1.6740     0.0140    -3.1280 h2         1 TSB       0.121700
     45 H8          -0.5730    -2.4390    -0.4250 h5         1 TSB       0.078800
     46 HN61         5.1270    -0.3930    -1.5550 hn         1 TSB       0.505500
     47 HN62         4.1570    -1.5860    -0.8100 hn         1 TSB       0.505500
     48 H6           2.3820     2.2050    -3.9240 h5         1 TSB       0.046100
     49 C            0.8820     0.7140     2.9770 c          1 TSB       0.633100
     50 O            0.6880     1.9080     3.1520 o          1 TSB      -0.493100
     51 N8          -0.1200    -0.1960     2.8680 ns         1 TSB      -0.629300
@<TRIPOS>BOND
     1     1     4 1   
     2     1    28 1   
     3     1    29 1   
     4     1    30 1   
     5     2     3 1   
     6     2    31 1   
     7     2    32 1   
     8     3     4 1   
     9     3    33 1   
    10     3    49 1   
    11     4     5 1   
    12     4    34 1   
    13     5    35 1   
    14     6     7 2   
    15     6     8 2   
    16     6     9 1   
    17     6    51 1   
    18     9    10 1   
    19    10    11 1   
    20    10    37 1   
    21    10    38 1   
    22    11    12 1   
    23    11    13 1   
    24    11    39 1   
    25    12    17 1   
    26    13    14 1   
    27    13    15 1   
    28    13    40 1   
    29    14    41 1   
    30    15    16 1   
    31    15    17 1   
    32    15    42 1   
    33    16    43 1   
    34    17    18 1   
    35    17    44 1   
    36    18    19 1   
    37    18    27 1   
    38    19    20 2   
    39    19    45 1   
    40    20    21 1   
    41    21    22 ar  
    42    21    27 ar  
    43    22    23 1   
    44    22    24 ar  
    45    23    46 1   
    46    23    47 1   
    47    24    25 ar  
    48    25    26 ar  
    49    25    48 1   
    50    26    27 ar  
    51    36    51 1   
    52    49    50 2   
    53    49    51 1   
@<TRIPOS>SUBSTRUCTURE
     1 TSB         1 TEMP              0 ****  ****    0 ROOT
