@<TRIPOS>MOLECULE
TSC
   25    26     1     0     0
SMALL
bcc


@<TRIPOS>ATOM
      1 O1           2.0830    -1.2810    -0.8900 oh         1 TSC      -0.586800
      2 CA           2.7110    -0.1430    -0.3610 c3         1 TSC       0.369300
      3 N            4.0700    -0.4610     0.0190 n8         1 TSC      -0.937800
      4 CB           1.8430     0.3700     0.7890 c3         1 TSC      -0.025200
      5 CG           0.4620     0.7730     0.3930 cc         1 TSC      -0.126400
      6 CD1          0.0430     2.0380     0.0860 cd         1 TSC      -0.116100
      7 NE1         -1.2870     2.0350    -0.2330 na         1 TSC      -0.174400
      8 CE2         -1.7700     0.7640    -0.1290 ca         1 TSC      -0.048200
      9 CD2         -0.6940    -0.0660     0.2590 ca         1 TSC      -0.081800
     10 CZ2         -3.0570     0.2680    -0.3340 ca         1 TSC      -0.153000
     11 CH2         -3.2570    -1.0850    -0.1390 ca         1 TSC      -0.108000
     12 CZ3         -2.2020    -1.9290     0.2500 ca         1 TSC      -0.166000
     13 CE3         -0.9270    -1.4330     0.4450 ca         1 TSC      -0.063000
     14 HO1          2.6560    -1.6280    -1.5820 ho         1 TSC       0.414000
     15 HA           2.7800     0.6540    -1.1160 h2         1 TSC       0.036700
     16 HN1          4.5930     0.3920     0.1750 hn         1 TSC       0.350300
     17 HN2          4.0840    -0.9710     0.8960 hn         1 TSC       0.350300
     18 HB1          1.8060    -0.4010     1.5660 hc         1 TSC       0.046200
     19 HB2          2.3620     1.2270     1.2280 hc         1 TSC       0.046200
     20 HD1          0.6050     2.9600     0.0790 h4         1 TSC       0.156000
     21 HE1         -1.8230     2.8500    -0.4790 hn         1 TSC       0.297700
     22 HZ2         -3.8710     0.9170    -0.6310 ha         1 TSC       0.128000
     23 HH2         -4.2450    -1.5030    -0.2870 ha         1 TSC       0.125000
     24 HZ3         -2.3950    -2.9850     0.3930 ha         1 TSC       0.127000
     25 HE3         -0.1190    -2.0940     0.7330 ha         1 TSC       0.140000
@<TRIPOS>BOND
     1     1     2 1   
     2     1    14 1   
     3     2     3 1   
     4     2     4 1   
     5     2    15 1   
     6     3    16 1   
     7     3    17 1   
     8     4     5 1   
     9     4    18 1   
    10     4    19 1   
    11     5     6 2   
    12     5     9 1   
    13     6     7 1   
    14     6    20 1   
    15     7     8 1   
    16     7    21 1   
    17     8     9 ar  
    18     8    10 ar  
    19     9    13 ar  
    20    10    11 ar  
    21    10    22 1   
    22    11    12 ar  
    23    11    23 1   
    24    12    13 ar  
    25    12    24 1   
    26    13    25 1   
@<TRIPOS>SUBSTRUCTURE
     1 TSC         1 TEMP              0 ****  ****    0 ROOT
