@<TRIPOS>MOLECULE
TSC
   25    26     1     0     0
SMALL
No Charge or Current Charge


@<TRIPOS>ATOM
      1 O1           2.2810    -1.4480    -0.8250 oh         1 TSC      -0.649000
      2 CA           2.6370    -0.1720    -0.4700 c3         1 TSC       0.392500
      3 N            3.9840    -0.5330    -0.1490 n8         1 TSC      -1.048200
      4 CB           1.8340     0.3600     0.7440 c3         1 TSC      -0.025200
      5 CG           0.4350     0.8150     0.4000 cc         1 TSC      -0.126400
      6 CD1          0.0110     2.1220     0.1720 cd         1 TSC      -0.166100
      7 NE1         -1.3740     2.1300    -0.1260 na         1 TSC      -0.224700
      8 CE2         -1.7820     0.8110    -0.0700 ca         1 TSC      -0.048200
      9 CD2         -0.7330    -0.0080     0.2420 ca         1 TSC      -0.081800
     10 CZ2         -3.0710     0.3020    -0.2820 ca         1 TSC      -0.135000
     11 CH2         -3.2650    -1.0900    -0.1640 ca         1 TSC      -0.090000
     12 CZ3         -2.1790    -1.9370     0.1620 ca         1 TSC      -0.148000
     13 CE3         -0.8930    -1.3960     0.3710 ca         1 TSC      -0.045000
     14 HO1          3.1860    -1.8240    -0.8610 ho         1 TSC       0.453000
     15 HA           2.5950     0.4970    -1.3410 h2         1 TSC       0.036700
     16 HN1          4.5280     0.3360    -0.0810 hn         1 TSC       0.405500
     17 HN2          3.9890    -0.8740     0.8190 hn         1 TSC       0.405500
     18 HB1          1.7910    -0.4070     1.5270 hc         1 TSC       0.046200
     19 HB2          2.3800     1.2070     1.1770 hc         1 TSC       0.046200
     20 HD1          0.5920     3.0400     0.1990 h4         1 TSC       0.206000
     21 HE1         -1.9510     2.9390    -0.3360 hn         1 TSC       0.348000
     22 HZ2         -3.9000     0.9610    -0.5290 ha         1 TSC       0.110000
     23 HH2         -4.2550    -1.5150    -0.3240 ha         1 TSC       0.107000
     24 HZ3         -2.3360    -3.0090     0.2530 ha         1 TSC       0.109000
     25 HE3         -0.0520    -2.0380     0.6240 ha         1 TSC       0.122000
@<TRIPOS>BOND
     1     1     2 1   
     2     1    14 1   
     3     2     3 1   
     4     2     4 1   
     5     2    15 1   
     6     3    16 1   
     7     3    17 1   
     8     4     5 1   
     9     4    18 1   
    10     4    19 1   
    11     5     6 2   
    12     5     9 1   
    13     6     7 1   
    14     6    20 1   
    15     7     8 1   
    16     7    21 1   
    17     8     9 ar  
    18     8    10 ar  
    19     9    13 ar  
    20    10    11 ar  
    21    10    22 1   
    22    11    12 ar  
    23    11    23 1   
    24    12    13 ar  
    25    12    24 1   
    26    13    25 1   
@<TRIPOS>SUBSTRUCTURE
     1 TSC         1 TEMP              0 ****  ****    0 ROOT
