@<TRIPOS>MOLECULE
TSE
   12    11     1     0     0
SMALL
abcg2


@<TRIPOS>ATOM
      1 C3P         -0.5360     1.1750    -1.7070 c          1 TSE       0.750000
      2 O4P          0.1590     0.6940    -2.6160 o          1 TSE      -0.707500
      3 O5P         -1.6190     1.7780    -1.8090 o          1 TSE      -0.707500
      4 P           -0.8440     1.9990     0.9410 p5         1 TSE       1.162800
      5 S1P         -0.7620     3.9320     0.7420 s          1 TSE      -0.662000
      6 C2P          0.0010     0.9760    -0.2720 c3         1 TSE      -0.528400
      7 O3P         -2.3420     1.4140     1.0640 oh         1 TSE      -0.503900
      8 O2P         -0.1430     1.4730     2.3000 oh         1 TSE      -0.503900
      9 H2P1         1.0700     1.1920    -0.2140 hc         1 TSE       0.080700
     10 H2P2        -0.1180    -0.0730     0.0210 hc         1 TSE       0.080700
     11 HOP3        -3.0140     2.0710     0.8470 ho         1 TSE       0.269500
     12 HOP2        -0.2960     2.0610     3.0520 ho         1 TSE       0.269500
@<TRIPOS>BOND
     1     1     2 1   
     2     1     3 1   
     3     1     6 1   
     4     4     5 2   
     5     4     6 1   
     6     4     7 1   
     7     4     8 1   
     8     6     9 1   
     9     6    10 1   
    10     7    11 1   
    11     8    12 1   
@<TRIPOS>SUBSTRUCTURE
     1 TSE         1 TEMP              0 ****  ****    0 ROOT
