@<TRIPOS>MOLECULE
TSE
   12    11     1     0     0
SMALL
No Charge or Current Charge


@<TRIPOS>ATOM
      1 C3P         -0.7230     1.2650    -1.5240 c          1 TSE       0.750000
      2 O4P          0.0290     1.8830    -2.2550 o          1 TSE      -0.707500
      3 O5P         -1.8930     1.0350    -1.7700 o          1 TSE      -0.707500
      4 P           -0.6290     2.0350     0.9310 p5         1 TSE       1.162800
      5 S1P         -0.0900     3.8610     0.5030 s          1 TSE      -0.662000
      6 C2P         -0.1730     0.7460    -0.2410 c3         1 TSE      -0.528400
      7 O3P         -2.1950     1.7990     1.1720 oh         1 TSE      -0.503900
      8 O2P         -0.0190     1.4620     2.2970 oh         1 TSE      -0.503900
      9 H2P1         0.9200     0.7080    -0.2060 hc         1 TSE       0.080700
     10 H2P2        -0.7090    -0.1250     0.1480 hc         1 TSE       0.080700
     11 HOP3        -2.6060     1.9640     0.3060 ho         1 TSE       0.269500
     12 HOP2        -0.3560     2.0580     2.9860 ho         1 TSE       0.269500
@<TRIPOS>BOND
     1     1     2 1   
     2     1     3 1   
     3     1     6 1   
     4     4     5 2   
     5     4     6 1   
     6     4     7 1   
     7     4     8 1   
     8     6     9 1   
     9     6    10 1   
    10     7    11 1   
    11     8    12 1   
@<TRIPOS>SUBSTRUCTURE
     1 TSE         1 TEMP              0 ****  ****    0 ROOT
