@<TRIPOS>MOLECULE
TSF
   53    54     1     0     0
SMALL
abcg2


@<TRIPOS>ATOM
      1 O2P         -8.5160    -1.1850     0.0070 o          1 TSF      -0.911833
      2 P           -7.2840    -0.7680     0.8070 p5         1 TSF       1.279500
      3 O3P         -6.8290    -1.7810     1.8570 o          1 TSF      -0.911833
      4 O1P         -7.2880     0.6860     1.2790 o          1 TSF      -0.911833
      5 C19         -5.8810    -0.8010    -0.4450 c3         1 TSF      -0.094000
      6 F1          -5.8000    -2.0590    -1.0300 f          1 TSF      -0.176500
      7 F2          -6.1800     0.0370    -1.5120 f          1 TSF      -0.176500
      8 C18         -4.5190    -0.4320     0.0890 c3         1 TSF      -0.117400
      9 C17         -3.3850    -0.4310    -0.9310 c3         1 TSF      -0.068400
     10 C16         -2.0520    -0.0930    -0.2770 c3         1 TSF      -0.097400
     11 C15         -0.9090    -0.0870    -1.2830 c3         1 TSF       0.108000
     12 N5           0.3540     0.2940    -0.6830 n          1 TSF      -0.235000
     13 C9           0.7650     1.5890    -0.3750 cc         1 TSF      -0.196600
     14 C4           0.2020     2.8620    -0.6600 c          1 TSF       0.625200
     15 O2          -0.8250     3.1080    -1.2680 o          1 TSF      -0.489000
     16 N3           0.9880     3.8970    -0.1400 ns         1 TSF      -0.474500
     17 C6           1.2420    -0.5920    -0.1630 c          1 TSF       0.577000
     18 O4           1.2160    -1.8090    -0.2060 o          1 TSF      -0.567000
     19 N7           2.2360     0.1700     0.4610 n          1 TSF      -0.301000
     20 C8           1.9340     1.4800     0.3120 cd         1 TSF       0.148200
     21 N1           2.6270     2.5470     0.7720 ns         1 TSF      -0.507600
     22 C2           2.1640     3.8250     0.5640 c          1 TSF       0.631000
     23 O1           2.7530     4.8050     0.9700 o          1 TSF      -0.580000
     24 C10          3.4070    -0.4130     1.0760 c3         1 TSF       0.087000
     25 C11          4.5220    -0.6360     0.0560 c3         1 TSF       0.124300
     26 O19          4.8710     0.5670    -0.5880 oh         1 TSF      -0.697000
     27 C12          5.7130    -1.3340     0.7170 c3         1 TSF       0.095300
     28 O21          6.2440    -0.5370     1.7580 oh         1 TSF      -0.724000
     29 C13          6.7990    -1.7430    -0.2940 c3         1 TSF       0.143300
     30 O23          6.2470    -2.4220    -1.3930 oh         1 TSF      -0.682000
     31 C14          7.8870    -2.5590     0.3890 c3         1 TSF       0.122600
     32 O26          8.9180    -2.8010    -0.5370 oh         1 TSF      -0.706000
     33 H181        -4.2890    -1.1250     0.9020 hc         1 TSF       0.062200
     34 H182        -4.6040     0.5540     0.5540 hc         1 TSF       0.062200
     35 H171        -3.5890     0.2960    -1.7210 hc         1 TSF       0.033200
     36 H172        -3.3130    -1.4090    -1.4150 hc         1 TSF       0.033200
     37 H161        -1.8330    -0.8170     0.5140 hc         1 TSF       0.045700
     38 H162        -2.1150     0.8880     0.2020 hc         1 TSF       0.045700
     39 H151        -1.1210     0.6010    -2.0990 h1         1 TSF       0.067700
     40 H152        -0.7780    -1.0760    -1.7210 h1         1 TSF       0.067700
     41 H3           0.6410     4.8340    -0.3000 hn         1 TSF       0.342500
     42 H1           3.4830     2.4440     1.2990 hn         1 TSF       0.454000
     43 H101         3.1090    -1.3610     1.5250 h1         1 TSF       0.071700
     44 H102         3.7320     0.2280     1.8980 h1         1 TSF       0.071700
     45 H11          4.1300    -1.2930    -0.7240 h1         1 TSF       0.115700
     46 H19          5.3800     1.1200     0.0160 ho         1 TSF       0.486000
     47 H12          5.3280    -2.2460     1.1940 h1         1 TSF       0.079700
     48 H21          6.9290     0.0420     1.4070 ho         1 TSF       0.502000
     49 H13          7.2510    -0.8310    -0.7030 h1         1 TSF       0.087700
     50 H23          5.9310    -3.2840    -1.0990 ho         1 TSF       0.503000
     51 H141         7.4420    -3.4960     0.7590 h1         1 TSF       0.025700
     52 H142         8.2510    -2.0150     1.2680 h1         1 TSF       0.025700
     53 H26          9.6020    -3.3100    -0.0940 ho         1 TSF       0.501000
@<TRIPOS>BOND
     1     1     2 1   
     2     2     3 1   
     3     2     4 1   
     4     2     5 1   
     5     5     6 1   
     6     5     7 1   
     7     5     8 1   
     8     8     9 1   
     9     8    33 1   
    10     8    34 1   
    11     9    10 1   
    12     9    35 1   
    13     9    36 1   
    14    10    11 1   
    15    10    37 1   
    16    10    38 1   
    17    11    12 1   
    18    11    39 1   
    19    11    40 1   
    20    12    13 1   
    21    12    17 1   
    22    13    14 1   
    23    13    20 2   
    24    14    15 2   
    25    14    16 1   
    26    16    22 1   
    27    16    41 1   
    28    17    18 2   
    29    17    19 1   
    30    19    20 1   
    31    19    24 1   
    32    20    21 1   
    33    21    22 1   
    34    21    42 1   
    35    22    23 2   
    36    24    25 1   
    37    24    43 1   
    38    24    44 1   
    39    25    26 1   
    40    25    27 1   
    41    25    45 1   
    42    26    46 1   
    43    27    28 1   
    44    27    29 1   
    45    27    47 1   
    46    28    48 1   
    47    29    30 1   
    48    29    31 1   
    49    29    49 1   
    50    30    50 1   
    51    31    32 1   
    52    31    51 1   
    53    31    52 1   
    54    32    53 1   
@<TRIPOS>SUBSTRUCTURE
     1 TSF         1 TEMP              0 ****  ****    0 ROOT
