@<TRIPOS>MOLECULE
TSF
   53    54     1     0     0
SMALL
No Charge or Current Charge


@<TRIPOS>ATOM
      1 O2P         -8.9700    -0.2110     0.8510 o          1 TSF      -0.911833
      2 P           -7.5820     0.0910     1.3190 p5         1 TSF       1.279500
      3 O3P         -7.2980    -0.6930     2.5590 o          1 TSF      -0.911833
      4 O1P         -7.4710     1.5510     1.6220 o          1 TSF      -0.911833
      5 C19         -6.3290    -0.3770    -0.0340 c3         1 TSF      -0.094000
      6 F1          -6.4610    -1.6960    -0.3350 f          1 TSF      -0.176500
      7 F2          -6.6160     0.3090    -1.1720 f          1 TSF      -0.176500
      8 C18         -4.8560    -0.0920     0.3760 c3         1 TSF      -0.117400
      9 C17         -3.7970    -0.4580    -0.6940 c3         1 TSF      -0.068400
     10 C16         -2.3520    -0.1580    -0.2400 c3         1 TSF      -0.097400
     11 C15         -1.2990    -0.5270    -1.3050 c3         1 TSF       0.108000
     12 N5           0.0790    -0.2260    -0.8730 n          1 TSF      -0.235000
     13 C9           0.7230     1.0080    -0.8970 cc         1 TSF      -0.196600
     14 C4           0.2410     2.3330    -1.3420 c          1 TSF       0.625200
     15 O2          -0.8590     2.5670    -1.8160 o          1 TSF      -0.489000
     16 N3           1.1760     3.3160    -1.1660 ns         1 TSF      -0.474500
     17 C6           0.9500    -1.1860    -0.3430 c          1 TSF       0.577000
     18 O4           0.7250    -2.3740    -0.1550 o          1 TSF      -0.567000
     19 N7           2.1410    -0.4970    -0.0750 n          1 TSF      -0.301000
     20 C8           1.9750     0.8380    -0.3910 cd         1 TSF       0.148200
     21 N1           2.7760     1.9350    -0.2650 ns         1 TSF      -0.507600
     22 C2           2.4300     3.2000    -0.6390 c          1 TSF       0.631000
     23 O1           3.1790     4.1470    -0.5080 o          1 TSF      -0.580000
     24 C10          3.3200    -1.1530     0.5490 c3         1 TSF       0.087000
     25 C11          4.7040    -0.4670     0.3410 c3         1 TSF       0.124300
     26 O19          4.8180     0.7060     1.1660 oh         1 TSF      -0.697000
     27 C12          5.8860    -1.4020     0.7360 c3         1 TSF       0.095300
     28 O21          5.9180    -1.4890     2.1830 oh         1 TSF      -0.724000
     29 C13          7.2630    -0.9070     0.1870 c3         1 TSF       0.143300
     30 O23          7.2480    -0.8730    -1.2480 oh         1 TSF      -0.682000
     31 C14          8.4590    -1.8080     0.5970 c3         1 TSF       0.122600
     32 O26          9.6290    -1.4250    -0.1530 oh         1 TSF      -0.706000
     33 H181        -4.6350    -0.6440     1.2980 hc         1 TSF       0.062200
     34 H182        -4.7590     0.9730     0.6220 hc         1 TSF       0.062200
     35 H171        -4.0020     0.0990    -1.6170 hc         1 TSF       0.033200
     36 H172        -3.8790    -1.5250    -0.9390 hc         1 TSF       0.033200
     37 H161        -2.1380    -0.7160     0.6810 hc         1 TSF       0.045700
     38 H162        -2.2630     0.9070     0.0030 hc         1 TSF       0.045700
     39 H151        -1.5060     0.0240    -2.2310 h1         1 TSF       0.067700
     40 H152        -1.3770    -1.5970    -1.5370 h1         1 TSF       0.067700
     41 H3           0.9020     4.2420    -1.4500 hn         1 TSF       0.342500
     42 H1           3.6890     1.8380     0.1760 hn         1 TSF       0.454000
     43 H101         3.3840    -2.1690     0.1410 h1         1 TSF       0.071700
     44 H102         3.1290    -1.2540     1.6250 h1         1 TSF       0.071700
     45 H11          4.7940    -0.2170    -0.7270 h1         1 TSF       0.115700
     46 H19          5.2400     0.3460     1.9880 ho         1 TSF       0.486000
     47 H12          5.6950    -2.3940     0.2980 h1         1 TSF       0.079700
     48 H21          6.2680    -2.3790     2.4270 ho         1 TSF       0.502000
     49 H13          7.4520     0.1010     0.5840 h1         1 TSF       0.087700
     50 H23          8.2050    -0.9860    -1.4770 ho         1 TSF       0.503000
     51 H141         8.2090    -2.8600     0.4030 h1         1 TSF       0.025700
     52 H142         8.6420    -1.6980     1.6750 h1         1 TSF       0.025700
     53 H26         10.3890    -1.9440     0.2080 ho         1 TSF       0.501000
@<TRIPOS>BOND
     1     1     2 1   
     2     2     3 1   
     3     2     4 1   
     4     2     5 1   
     5     5     6 1   
     6     5     7 1   
     7     5     8 1   
     8     8     9 1   
     9     8    33 1   
    10     8    34 1   
    11     9    10 1   
    12     9    35 1   
    13     9    36 1   
    14    10    11 1   
    15    10    37 1   
    16    10    38 1   
    17    11    12 1   
    18    11    39 1   
    19    11    40 1   
    20    12    13 1   
    21    12    17 1   
    22    13    14 1   
    23    13    20 2   
    24    14    15 2   
    25    14    16 1   
    26    16    22 1   
    27    16    41 1   
    28    17    18 2   
    29    17    19 1   
    30    19    20 1   
    31    19    24 1   
    32    20    21 1   
    33    21    22 1   
    34    21    42 1   
    35    22    23 2   
    36    24    25 1   
    37    24    43 1   
    38    24    44 1   
    39    25    26 1   
    40    25    27 1   
    41    25    45 1   
    42    26    46 1   
    43    27    28 1   
    44    27    29 1   
    45    27    47 1   
    46    28    48 1   
    47    29    30 1   
    48    29    31 1   
    49    29    49 1   
    50    30    50 1   
    51    31    32 1   
    52    31    51 1   
    53    31    52 1   
    54    32    53 1   
@<TRIPOS>SUBSTRUCTURE
     1 TSF         1 TEMP              0 ****  ****    0 ROOT
