@<TRIPOS>MOLECULE
TSH
   22    23     1     0     0
SMALL
No Charge or Current Charge


@<TRIPOS>ATOM
      1 N            4.0050     0.9410     0.5930 n2         1 TSH      -0.755100
      2 CA           2.7430     0.9030     0.3450 c2         1 TSH       0.426200
      3 CB           2.1500     0.1110    -0.8020 c3         1 TSH      -0.059500
      4 CG           0.8480    -0.5600    -0.4430 cc         1 TSH      -0.147400
      5 CD2         -0.4100     0.0860    -0.1950 ca         1 TSH      -0.095800
      6 CE3         -0.7520     1.4470    -0.2150 ca         1 TSH      -0.064000
      7 CZ3         -2.0890     1.7960     0.0720 ca         1 TSH      -0.140000
      8 CH2         -3.0420     0.7920     0.3670 ca         1 TSH      -0.092000
      9 CZ2         -2.6640    -0.5670     0.3750 ca         1 TSH      -0.127000
     10 CE2         -1.3290    -0.8850     0.0870 ca         1 TSH      -0.047200
     11 NE1         -0.7490    -2.1380     0.0350 na         1 TSH      -0.223700
     12 CD1          0.6100    -1.9240    -0.3030 cd         1 TSH      -0.146100
     13 HN           4.1650     1.5430     1.4140 hn         1 TSH       0.372400
     14 HA           2.0560     1.4660     0.9710 h4         1 TSH      -0.039200
     15 HB1          1.9890     0.7820    -1.6540 hc         1 TSH       0.063700
     16 HB2          2.8680    -0.6440    -1.1440 hc         1 TSH       0.063700
     17 HE3         -0.0130     2.2110    -0.4460 ha         1 TSH       0.112000
     18 HZ3         -2.3880     2.8420     0.0660 ha         1 TSH       0.110000
     19 HH2         -4.0700     1.0700     0.5870 ha         1 TSH       0.110000
     20 HZ2         -3.3900    -1.3460     0.5990 ha         1 TSH       0.113000
     21 HE1         -1.2060    -3.0300     0.2000 hn         1 TSH       0.350000
     22 HD1          1.3060    -2.7530    -0.4170 h4         1 TSH       0.216000
@<TRIPOS>BOND
     1     1     2 2   
     2     1    13 1   
     3     2     3 1   
     4     2    14 1   
     5     3     4 1   
     6     3    15 1   
     7     3    16 1   
     8     4     5 1   
     9     4    12 2   
    10     5     6 ar  
    11     5    10 ar  
    12     6     7 ar  
    13     6    17 1   
    14     7     8 ar  
    15     7    18 1   
    16     8     9 ar  
    17     8    19 1   
    18     9    10 ar  
    19     9    20 1   
    20    10    11 1   
    21    11    12 1   
    22    11    21 1   
    23    12    22 1   
@<TRIPOS>SUBSTRUCTURE
     1 TSH         1 TEMP              0 ****  ****    0 ROOT
