@<TRIPOS>MOLECULE
TSH
   22    23     1     0     0
SMALL
abcg2


@<TRIPOS>ATOM
      1 N            3.9580     0.5820     0.7030 n2         1 TSH      -0.755100
      2 CA           2.7750     0.8390     0.3420 c2         1 TSH       0.426200
      3 CB           2.1440     0.1760    -0.8470 c3         1 TSH      -0.059500
      4 CG           0.8550    -0.4870    -0.4760 cc         1 TSH      -0.147400
      5 CD2         -0.4030     0.1540    -0.2330 ca         1 TSH      -0.095800
      6 CE3         -0.8390     1.4830    -0.2870 ca         1 TSH      -0.064000
      7 CZ3         -2.1590     1.7660     0.0080 ca         1 TSH      -0.140000
      8 CH2         -3.0570     0.7440     0.3580 ca         1 TSH      -0.092000
      9 CZ2         -2.6560    -0.5770     0.4180 ca         1 TSH      -0.127000
     10 CE2         -1.3230    -0.8580     0.1210 ca         1 TSH      -0.047200
     11 NE1         -0.6510    -2.0440     0.0940 na         1 TSH      -0.223700
     12 CD1          0.6500    -1.8210    -0.2600 cd         1 TSH      -0.146100
     13 HN           4.2040     1.1240     1.5260 hn         1 TSH       0.372400
     14 HA           2.1320     1.5510     0.8680 h4         1 TSH      -0.039200
     15 HB1          1.9640     0.9390    -1.6130 hc         1 TSH       0.063700
     16 HB2          2.8470    -0.5430    -1.2690 hc         1 TSH       0.063700
     17 HE3         -0.1550     2.2800    -0.5550 ha         1 TSH       0.112000
     18 HZ3         -2.5090     2.7890    -0.0280 ha         1 TSH       0.110000
     19 HH2         -4.0850     0.9960     0.5850 ha         1 TSH       0.110000
     20 HZ2         -3.3510    -1.3630     0.6860 ha         1 TSH       0.113000
     21 HE1         -1.0460    -2.9480     0.2910 hn         1 TSH       0.350000
     22 HD1          1.3450    -2.6410    -0.3400 h4         1 TSH       0.216000
@<TRIPOS>BOND
     1     1     2 2   
     2     1    13 1   
     3     2     3 1   
     4     2    14 1   
     5     3     4 1   
     6     3    15 1   
     7     3    16 1   
     8     4     5 1   
     9     4    12 2   
    10     5     6 ar  
    11     5    10 ar  
    12     6     7 ar  
    13     6    17 1   
    14     7     8 ar  
    15     7    18 1   
    16     8     9 ar  
    17     8    19 1   
    18     9    10 ar  
    19     9    20 1   
    20    10    11 1   
    21    11    12 1   
    22    11    21 1   
    23    12    22 1   
@<TRIPOS>SUBSTRUCTURE
     1 TSH         1 TEMP              0 ****  ****    0 ROOT
