@<TRIPOS>MOLECULE
TSI
   21    20     1     0     0
SMALL
No Charge or Current Charge


@<TRIPOS>ATOM
      1 C2           0.7550     0.4970    -1.2830 c3         1 TSI       0.120800
      2 N1           0.1040     0.4560    -2.6270 n8         1 TSI      -0.989200
      3 C3          -0.1710    -0.0790    -0.1650 c3         1 TSI       0.163000
      4 C5          -0.2040    -1.6310    -0.2220 c3         1 TSI      -0.086100
      5 O4          -1.4750     0.3810    -0.5220 oh         1 TSI      -0.644000
      6 C6           0.2380     0.4800     1.2510 c3         1 TSI       0.138300
      7 C8          -0.7050     0.0820     2.4110 c3         1 TSI      -0.119100
      8 O7           1.5720     0.0760     1.6020 oh         1 TSI      -0.659000
      9 HC1          1.7050    -0.0560    -1.3180 h1         1 TSI       0.037700
     10 HC2          0.9850     1.5470    -1.0540 h1         1 TSI       0.037700
     11 HN11         0.7220     0.9100    -3.3120 hn         1 TSI       0.392500
     12 HN12         0.0720    -0.5180    -2.9560 hn         1 TSI       0.392500
     13 HC1A         0.7820    -2.0550     0.0050 hc         1 TSI       0.044033
     14 HC2A        -0.9260    -2.0420     0.4930 hc         1 TSI       0.044033
     15 HC3         -0.4950    -1.9840    -1.2190 hc         1 TSI       0.044033
     16 HO4         -1.3390     0.5980    -1.4800 ho         1 TSI       0.442000
     17 HC6          0.2070     1.5770     1.1800 h1         1 TSI       0.062700
     18 H81         -0.3980     0.5780     3.3390 hc         1 TSI       0.045033
     19 H82         -1.7360     0.3880     2.1970 hc         1 TSI       0.045033
     20 H83         -0.6970    -1.0000     2.5870 hc         1 TSI       0.045033
     21 HO7          1.5240    -0.8590     1.8980 ho         1 TSI       0.441000
@<TRIPOS>BOND
     1     1     2 1   
     2     1     3 1   
     3     1     9 1   
     4     1    10 1   
     5     2    11 1   
     6     2    12 1   
     7     3     4 1   
     8     3     5 1   
     9     3     6 1   
    10     4    13 1   
    11     4    14 1   
    12     4    15 1   
    13     5    16 1   
    14     6     7 1   
    15     6     8 1   
    16     6    17 1   
    17     7    18 1   
    18     7    19 1   
    19     7    20 1   
    20     8    21 1   
@<TRIPOS>SUBSTRUCTURE
     1 TSI         1 TEMP              0 ****  ****    0 ROOT
