@<TRIPOS>MOLECULE
TSI
   21    20     1     0     0
SMALL
abcg2


@<TRIPOS>ATOM
      1 C2           0.7080     0.4710    -1.3050 c3         1 TSI       0.120800
      2 N1           0.3120     0.0670    -2.6450 n8         1 TSI      -0.989200
      3 C3          -0.2320    -0.0790    -0.2210 c3         1 TSI       0.163000
      4 C5          -0.2660    -1.6010    -0.2480 c3         1 TSI      -0.086100
      5 O4          -1.5610     0.3510    -0.4580 oh         1 TSI      -0.644000
      6 C6           0.2270     0.4590     1.1600 c3         1 TSI       0.138300
      7 C8          -0.7000     0.0810     2.3060 c3         1 TSI      -0.119100
      8 O7           1.5640     0.0980     1.4520 oh         1 TSI      -0.659000
      9 HC1          1.7380     0.1960    -1.0540 h1         1 TSI       0.037700
     10 HC2          0.6680     1.5660    -1.2590 h1         1 TSI       0.037700
     11 HN11         0.8090     0.6350    -3.3190 hn         1 TSI       0.392500
     12 HN12         0.6160    -0.8820    -2.8210 hn         1 TSI       0.392500
     13 HC1A         0.7200    -2.0250    -0.0490 hc         1 TSI       0.044033
     14 HC2A        -0.9590    -2.0020     0.4920 hc         1 TSI       0.044033
     15 HC3         -0.5870    -1.9680    -1.2230 hc         1 TSI       0.044033
     16 HO4         -1.5530     1.3020    -0.6120 ho         1 TSI       0.442000
     17 HC6          0.2400     1.5540     1.0800 h1         1 TSI       0.062700
     18 H81         -0.3770     0.5720     3.2240 hc         1 TSI       0.045033
     19 H82         -1.7280     0.3800     2.1100 hc         1 TSI       0.045033
     20 H83         -0.6970    -0.9960     2.4900 hc         1 TSI       0.045033
     21 HO7          1.5780    -0.8310     1.7040 ho         1 TSI       0.441000
@<TRIPOS>BOND
     1     1     2 1   
     2     1     3 1   
     3     1     9 1   
     4     1    10 1   
     5     2    11 1   
     6     2    12 1   
     7     3     4 1   
     8     3     5 1   
     9     3     6 1   
    10     4    13 1   
    11     4    14 1   
    12     4    15 1   
    13     5    16 1   
    14     6     7 1   
    15     6     8 1   
    16     6    17 1   
    17     7    18 1   
    18     7    19 1   
    19     7    20 1   
    20     8    21 1   
@<TRIPOS>SUBSTRUCTURE
     1 TSI         1 TEMP              0 ****  ****    0 ROOT
