@<TRIPOS>MOLECULE
TSJ
   44    46     1     0     0
SMALL
abcg2


@<TRIPOS>ATOM
      1 F1          20.5850    28.3450     4.2240 f          1 TSJ      -0.116333
      2 CAV         21.0490    29.6070     4.0580 c3         1 TSJ       0.342300
      3 F2          22.1140    29.5240     3.2360 f          1 TSJ      -0.116333
      4 F3          21.5320    29.9890     5.2710 f          1 TSJ      -0.116333
      5 CAH         19.9910    30.5440     3.5560 ca         1 TSJ      -0.192300
      6 CAI         18.7290    30.4890     4.1350 ca         1 TSJ      -0.050000
      7 CAG         20.2860    31.4760     2.5690 ca         1 TSJ      -0.068000
      8 CAF         19.3040    32.3720     2.1400 ca         1 TSJ      -0.091300
      9 CAU         19.5950    33.3610     1.0450 c3         1 TSJ      -0.043800
     10 CAE         18.0440    32.3140     2.7290 ca         1 TSJ      -0.064000
     11 CAJ         17.7380    31.3820     3.7260 ca         1 TSJ      -0.100500
     12 CAK         16.4090    31.3430     4.3460 cc         1 TSJ       0.310500
     13 CAO         15.9330    30.4190     5.3100 cc         1 TSJ      -0.239000
     14 NAL         15.4760    32.2480     4.0440 nd         1 TSJ      -0.535800
     15 NAM         14.4100    31.9170     4.8030 na         1 TSJ      -0.051200
     16 CAN         14.6410    30.8310     5.5790 cd         1 TSJ       0.034600
     17 NAP         13.6630    30.3660     6.4380 ns         1 TSJ      -0.409100
     18 CAQ         13.7630    29.2460     7.2240 c          1 TSJ       0.636700
     19 OAR         14.7280    28.4950     7.1720 o          1 TSJ      -0.579100
     20 C4          12.6140    29.0400     8.1540 ca         1 TSJ      -0.191600
     21 C3          12.1430    30.1220     8.9030 ca         1 TSJ      -0.119000
     22 C2          11.1230    29.9570     9.8270 ca         1 TSJ      -0.097000
     23 C1          10.5400    28.7050    10.0090 ca         1 TSJ      -0.096600
     24 C8           9.4100    28.5100    11.0230 c          1 TSJ       0.703600
     25 O1           8.9360    27.3520    11.1330 o          1 TSJ      -0.712000
     26 O2           9.0490    29.5270    11.6680 o          1 TSJ      -0.712000
     27 C6          11.0070    27.6350     9.2470 ca         1 TSJ      -0.098000
     28 C5          12.0430    27.7660     8.3240 ca         1 TSJ      -0.049300
     29 C7          12.4870    26.5640     7.5340 c3         1 TSJ      -0.043800
     30 H1          18.5220    29.7610     4.9070 ha         1 TSJ       0.139000
     31 H2          21.2740    31.5120     2.1300 ha         1 TSJ       0.123000
     32 H3          19.3270    32.9440     0.0700 hc         1 TSJ       0.042367
     33 H4          19.0180    34.2770     1.1800 hc         1 TSJ       0.042367
     34 H5          20.6550    33.6160     1.0150 hc         1 TSJ       0.042367
     35 H6          17.2790    33.0090     2.4090 ha         1 TSJ       0.132000
     36 H7          16.4390    29.5800     5.7460 ha         1 TSJ       0.171000
     37 H9          12.8040    30.8940     6.4850 hn         1 TSJ       0.329500
     38 H10         12.5970    31.0980     8.7780 ha         1 TSJ       0.088000
     39 H11         10.7700    30.7940    10.4130 ha         1 TSJ       0.136000
     40 H13         10.5410    26.6680     9.3830 ha         1 TSJ       0.136000
     41 H14         13.4360    26.1740     7.9070 hc         1 TSJ       0.039033
     42 H15         11.7420    25.7720     7.6080 hc         1 TSJ       0.039033
     43 H16         12.6350    26.8040     6.4810 hc         1 TSJ       0.039033
     44 H8          13.5670    32.4690     4.7550 hn         1 TSJ       0.368000
@<TRIPOS>BOND
     1     1     2 1   
     2     2     3 1   
     3     2     4 1   
     4     2     5 1   
     5     5     6 ar  
     6     5     7 ar  
     7     6    11 ar  
     8     6    30 1   
     9     7     8 ar  
    10     7    31 1   
    11     8     9 1   
    12     8    10 ar  
    13     9    32 1   
    14     9    33 1   
    15     9    34 1   
    16    10    11 ar  
    17    10    35 1   
    18    11    12 1   
    19    12    13 1   
    20    12    14 2   
    21    13    16 2   
    22    13    36 1   
    23    14    15 1   
    24    15    16 1   
    25    15    44 1   
    26    16    17 1   
    27    17    18 1   
    28    17    37 1   
    29    18    19 2   
    30    18    20 1   
    31    20    21 ar  
    32    20    28 ar  
    33    21    22 ar  
    34    21    38 1   
    35    22    23 ar  
    36    22    39 1   
    37    23    24 1   
    38    23    27 ar  
    39    24    25 1   
    40    24    26 1   
    41    27    28 ar  
    42    27    40 1   
    43    28    29 1   
    44    29    41 1   
    45    29    42 1   
    46    29    43 1   
@<TRIPOS>SUBSTRUCTURE
     1 TSJ         1 TEMP              0 ****  ****    0 ROOT
