@<TRIPOS>MOLECULE
TSJ
   44    46     1     0     0
SMALL
No Charge or Current Charge


@<TRIPOS>ATOM
      1 F1          20.1100    27.9950     3.8240 f          1 TSJ      -0.116333
      2 CAV         20.7860    29.1600     3.6990 c3         1 TSJ       0.342300
      3 F2          21.7260    28.9590     2.7470 f          1 TSJ      -0.116333
      4 F3          21.4410    29.3640     4.8640 f          1 TSJ      -0.116333
      5 CAH         19.8530    30.3340     3.3740 ca         1 TSJ      -0.192300
      6 CAI         18.5880    30.4200     3.9940 ca         1 TSJ      -0.050000
      7 CAG         20.2500    31.3470     2.4770 ca         1 TSJ      -0.068000
      8 CAF         19.3920    32.4230     2.1940 ca         1 TSJ      -0.091300
      9 CAU         19.8250    33.5090     1.2200 c3         1 TSJ      -0.043800
     10 CAE         18.1290    32.4890     2.8090 ca         1 TSJ      -0.064000
     11 CAJ         17.7080    31.4930     3.7200 ca         1 TSJ      -0.100500
     12 CAK         16.3810    31.5830     4.3620 cc         1 TSJ       0.310500
     13 CAO         15.8510    30.6540     5.2810 cc         1 TSJ      -0.239000
     14 NAL         15.5420    32.5800     4.1230 nd         1 TSJ      -0.535800
     15 NAM         14.4370    32.2750     4.9190 na         1 TSJ      -0.051200
     16 CAN         14.6150    31.0930     5.6360 cd         1 TSJ       0.034600
     17 NAP         13.7060    30.5200     6.5130 ns         1 TSJ      -0.409100
     18 CAQ         13.8050    29.3500     7.2470 c          1 TSJ       0.636700
     19 OAR         14.7970    28.6360     7.2050 o          1 TSJ      -0.579100
     20 C4          12.6120    29.0580     8.1510 ca         1 TSJ      -0.191600
     21 C3          11.8020    30.1290     8.6060 ca         1 TSJ      -0.119000
     22 C2          10.7030    29.9080     9.4490 ca         1 TSJ      -0.097000
     23 C1          10.3680    28.6060     9.8720 ca         1 TSJ      -0.096600
     24 C8           9.1760    28.3640    10.7890 c          1 TSJ       0.703600
     25 O1           8.9240    27.2180    11.1350 o          1 TSJ      -0.712000
     26 O2           8.5080    29.3250    11.1490 o          1 TSJ      -0.712000
     27 C6          11.1680    27.5340     9.4230 ca         1 TSJ      -0.098000
     28 C5          12.2770    27.7390     8.5740 ca         1 TSJ      -0.049300
     29 C7          13.0510    26.5040     8.1150 c3         1 TSJ      -0.043800
     30 H1          18.2990    29.6410     4.6930 ha         1 TSJ       0.139000
     31 H2          21.2260    31.3060     1.9980 ha         1 TSJ       0.123000
     32 H3          19.5180    33.2610     0.1970 hc         1 TSJ       0.042367
     33 H4          19.3800    34.4780     1.4770 hc         1 TSJ       0.042367
     34 H5          20.9140    33.6380     1.2210 hc         1 TSJ       0.042367
     35 H6          17.4760    33.3270     2.5750 ha         1 TSJ       0.132000
     36 H7          16.3500    29.7610     5.6300 ha         1 TSJ       0.171000
     37 H9          12.8200    30.9890     6.6530 hn         1 TSJ       0.329500
     38 H10         12.0280    31.1570     8.3340 ha         1 TSJ       0.088000
     39 H11         10.1120    30.7600     9.7790 ha         1 TSJ       0.136000
     40 H13         10.9230    26.5210     9.7360 ha         1 TSJ       0.136000
     41 H14         14.0410    26.4610     8.5850 hc         1 TSJ       0.039033
     42 H15         12.5310    25.5750     8.3730 hc         1 TSJ       0.039033
     43 H16         13.1850    26.4990     7.0270 hc         1 TSJ       0.039033
     44 H8          13.6150    32.8750     4.9430 hn         1 TSJ       0.368000
@<TRIPOS>BOND
     1     1     2 1   
     2     2     3 1   
     3     2     4 1   
     4     2     5 1   
     5     5     6 ar  
     6     5     7 ar  
     7     6    11 ar  
     8     6    30 1   
     9     7     8 ar  
    10     7    31 1   
    11     8     9 1   
    12     8    10 ar  
    13     9    32 1   
    14     9    33 1   
    15     9    34 1   
    16    10    11 ar  
    17    10    35 1   
    18    11    12 1   
    19    12    13 1   
    20    12    14 2   
    21    13    16 2   
    22    13    36 1   
    23    14    15 1   
    24    15    16 1   
    25    15    44 1   
    26    16    17 1   
    27    17    18 1   
    28    17    37 1   
    29    18    19 2   
    30    18    20 1   
    31    20    21 ar  
    32    20    28 ar  
    33    21    22 ar  
    34    21    38 1   
    35    22    23 ar  
    36    22    39 1   
    37    23    24 1   
    38    23    27 ar  
    39    24    25 1   
    40    24    26 1   
    41    27    28 ar  
    42    27    40 1   
    43    28    29 1   
    44    29    41 1   
    45    29    42 1   
    46    29    43 1   
@<TRIPOS>SUBSTRUCTURE
     1 TSJ         1 TEMP              0 ****  ****    0 ROOT
