@<TRIPOS>MOLECULE
TSK
   44    48     1     0     0
SMALL
bcc


@<TRIPOS>ATOM
      1 N1           2.2980     3.8050    -0.5590 ns         1 TSK      -0.624500
      2 C2           3.1960     2.7840    -0.7760 c          1 TSK       0.712700
      3 C3           2.5080     1.5270    -0.3670 cc         1 TSK      -0.091200
      4 C4           1.2680     1.8380     0.0570 cd         1 TSK      -0.039200
      5 C5           1.1180     3.3300    -0.0450 c          1 TSK       0.708700
      6 O6           0.1700     3.9950     0.2870 o          1 TSK      -0.553500
      7 O7           4.3070     2.8990    -1.2280 o          1 TSK      -0.550500
      8 C8           3.1550     0.2360    -0.5030 cc         1 TSK      -0.111200
      9 C9           4.4430    -0.1660     0.0090 ca         1 TSK      -0.056800
     10 C10          4.5890    -1.4880    -0.3910 ca         1 TSK       0.015100
     11 O11          3.5090    -1.8960    -1.0960 os         1 TSK      -0.143200
     12 C12          2.6630    -0.8480    -1.1470 cd         1 TSK       0.019100
     13 C13          0.2450     0.9920     0.6180 cd         1 TSK      -0.128200
     14 C14          0.4910    -0.0850     1.4430 cc         1 TSK      -0.050100
     15 N15         -0.6620    -0.6840     1.8050 na         1 TSK      -0.038400
     16 C16         -1.7060    -0.0210     1.2150 ca         1 TSK      -0.085200
     17 C17         -1.1800     1.0490     0.4610 ca         1 TSK      -0.024800
     18 C18          5.4470     0.4450     0.7680 ca         1 TSK      -0.108000
     19 C19          6.5530    -0.3160     1.0810 ca         1 TSK      -0.105000
     20 C20          6.6920    -1.6500     0.6650 ca         1 TSK      -0.208000
     21 C21          5.7030    -2.2700    -0.0850 ca         1 TSK       0.155100
     22 C22         -2.0600     1.8530    -0.2690 ca         1 TSK      -0.115000
     23 C23         -3.4020     1.5720    -0.1980 ca         1 TSK       0.138900
     24 C24         -3.9160     0.5190     0.5660 ca         1 TSK       0.019900
     25 C25         -3.0660    -0.2990     1.2850 ca         1 TSK      -0.078000
     26 C26         -0.7910    -1.8150     2.6940 c3         1 TSK       0.028600
     27 F30         -4.2550     2.3380    -0.8910 f          1 TSK      -0.128900
     28 I31         -5.9820     0.1870     0.6030 i          1 TSK      -0.142900
     29 O32          5.7130    -3.5320    -0.5360 os         1 TSK      -0.301900
     30 C33          6.8410    -4.3330    -0.2360 c3         1 TSK       0.123700
     31 HN1          2.4930     4.7820    -0.7300 hn         1 TSK       0.352500
     32 H12          1.7390    -1.0000    -1.6830 h4         1 TSK       0.198000
     33 H14          1.4370    -0.4500     1.8120 h4         1 TSK       0.177000
     34 H18          5.3610     1.4690     1.1040 ha         1 TSK       0.147000
     35 H19          7.3520     0.1200     1.6670 ha         1 TSK       0.134000
     36 H20          7.5860    -2.1890     0.9480 ha         1 TSK       0.138000
     37 H22         -1.7190     2.6790    -0.8780 ha         1 TSK       0.167000
     38 H25         -3.4430    -1.1260     1.8710 ha         1 TSK       0.149000
     39 H26         -1.3230    -1.5330     3.6020 h1         1 TSK       0.057033
     40 H26A        -1.3290    -2.6250     2.2050 h1         1 TSK       0.057033
     41 H26B         0.1990    -2.1700     2.9630 h1         1 TSK       0.057033
     42 H33          6.9780    -4.4540     0.8410 h1         1 TSK       0.043700
     43 H33A         6.6520    -5.3080    -0.6780 h1         1 TSK       0.043700
     44 H33B         7.7570    -3.9210    -0.6660 h1         1 TSK       0.043700
@<TRIPOS>BOND
     1     1     2 1   
     2     1     5 1   
     3     1    31 1   
     4     2     3 1   
     5     2     7 2   
     6     3     4 2   
     7     3     8 1   
     8     4     5 1   
     9     4    13 1   
    10     5     6 2   
    11     8     9 1   
    12     8    12 2   
    13     9    10 ar  
    14     9    18 ar  
    15    10    11 1   
    16    10    21 ar  
    17    11    12 1   
    18    12    32 1   
    19    13    14 2   
    20    13    17 1   
    21    14    15 1   
    22    14    33 1   
    23    15    16 1   
    24    15    26 1   
    25    16    17 ar  
    26    16    25 ar  
    27    17    22 ar  
    28    18    19 ar  
    29    18    34 1   
    30    19    20 ar  
    31    19    35 1   
    32    20    21 ar  
    33    20    36 1   
    34    21    29 1   
    35    22    23 ar  
    36    22    37 1   
    37    23    24 ar  
    38    23    27 1   
    39    24    25 ar  
    40    24    28 1   
    41    25    38 1   
    42    26    39 1   
    43    26    40 1   
    44    26    41 1   
    45    29    30 1   
    46    30    42 1   
    47    30    43 1   
    48    30    44 1   
@<TRIPOS>SUBSTRUCTURE
     1 TSK         1 TEMP              0 ****  ****    0 ROOT
