@<TRIPOS>MOLECULE
TSK
   44    48     1     0     0
SMALL
No Charge or Current Charge


@<TRIPOS>ATOM
      1 N1           2.2740     3.7630    -0.3480 ns         1 TSK      -0.490500
      2 C2           3.2650     2.8490    -0.2610 c          1 TSK       0.570200
      3 C3           2.5510     1.5710    -0.0180 cc         1 TSK      -0.091200
      4 C4           1.1820     1.8600     0.0670 cd         1 TSK      -0.039200
      5 C5           1.0100     3.3140    -0.1940 c          1 TSK       0.566200
      6 O6           0.0080     4.0090    -0.1960 o          1 TSK      -0.478000
      7 O7           4.4460     3.0840    -0.4490 o          1 TSK      -0.475000
      8 C8           3.1730     0.2570    -0.0820 cc         1 TSK      -0.111200
      9 C9           4.5540    -0.1820     0.1190 ca         1 TSK      -0.056800
     10 C10          4.6120    -1.5240    -0.1970 ca         1 TSK       0.015100
     11 O11          3.3790    -1.9520    -0.5760 os         1 TSK      -0.143200
     12 C12          2.5110    -0.8930    -0.5110 cd         1 TSK      -0.030900
     13 C13          0.1580     0.9160     0.4900 cd         1 TSK      -0.128200
     14 C14          0.4860    -0.1040     1.3820 cc         1 TSK      -0.100100
     15 N15         -0.7470    -0.6650     1.7570 na         1 TSK      -0.067700
     16 C16         -1.7940     0.0010     1.1390 ca         1 TSK      -0.085200
     17 C17         -1.2840     0.9930     0.3410 ca         1 TSK      -0.024800
     18 C18          5.6940     0.4780     0.6060 ca         1 TSK      -0.090000
     19 C19          6.8990    -0.2510     0.7120 ca         1 TSK      -0.087000
     20 C20          6.9530    -1.6200     0.3560 ca         1 TSK      -0.190000
     21 C21          5.7880    -2.2840    -0.1010 ca         1 TSK       0.155100
     22 C22         -2.1140     1.7840    -0.4680 ca         1 TSK      -0.097000
     23 C23         -3.5050     1.5690    -0.3960 ca         1 TSK       0.174000
     24 C24         -4.0380     0.5670     0.4540 ca         1 TSK       0.157000
     25 C25         -3.1760    -0.2380     1.2270 ca         1 TSK      -0.060000
     26 C26         -0.9700    -1.7630     2.7090 c3         1 TSK       0.057900
     27 F30         -4.3310     2.3210    -1.1600 f          1 TSK      -0.164000
     28 I31         -6.1820     0.2250     0.5610 i          1 TSK      -0.280000
     29 O32          5.7640    -3.6230    -0.4420 os         1 TSK      -0.325100
     30 C33          6.9370    -4.4500    -0.3610 c3         1 TSK       0.146900
     31 HN1          2.4690     4.7350    -0.5310 hn         1 TSK       0.352500
     32 H12          1.4940    -1.0580    -0.8530 h4         1 TSK       0.248000
     33 H14          1.4270    -0.4110     1.8270 h4         1 TSK       0.227000
     34 H18          5.6630     1.5120     0.9290 ha         1 TSK       0.129000
     35 H19          7.7930     0.2440     1.0850 ha         1 TSK       0.116000
     36 H20          7.8970    -2.1480     0.4550 ha         1 TSK       0.120000
     37 H22         -1.7140     2.5240    -1.1520 ha         1 TSK       0.149000
     38 H25         -3.5790    -1.0220     1.8630 ha         1 TSK       0.131000
     39 H26         -1.5680    -1.4010     3.5550 h1         1 TSK       0.057033
     40 H26A        -1.5010    -2.5820     2.2090 h1         1 TSK       0.057033
     41 H26B        -0.0070    -2.1330     3.0820 h1         1 TSK       0.057033
     42 H33          7.3160    -4.4890     0.6690 h1         1 TSK       0.043700
     43 H33A         6.7020    -5.4750    -0.6750 h1         1 TSK       0.043700
     44 H33B         7.7310    -4.0670    -1.0150 h1         1 TSK       0.043700
@<TRIPOS>BOND
     1     1     2 1   
     2     1     5 1   
     3     1    31 1   
     4     2     3 1   
     5     2     7 2   
     6     3     4 2   
     7     3     8 1   
     8     4     5 1   
     9     4    13 1   
    10     5     6 2   
    11     8     9 1   
    12     8    12 2   
    13     9    10 ar  
    14     9    18 ar  
    15    10    11 1   
    16    10    21 ar  
    17    11    12 1   
    18    12    32 1   
    19    13    14 2   
    20    13    17 1   
    21    14    15 1   
    22    14    33 1   
    23    15    16 1   
    24    15    26 1   
    25    16    17 ar  
    26    16    25 ar  
    27    17    22 ar  
    28    18    19 ar  
    29    18    34 1   
    30    19    20 ar  
    31    19    35 1   
    32    20    21 ar  
    33    20    36 1   
    34    21    29 1   
    35    22    23 ar  
    36    22    37 1   
    37    23    24 ar  
    38    23    27 1   
    39    24    25 ar  
    40    24    28 1   
    41    25    38 1   
    42    26    39 1   
    43    26    40 1   
    44    26    41 1   
    45    29    30 1   
    46    30    42 1   
    47    30    43 1   
    48    30    44 1   
@<TRIPOS>SUBSTRUCTURE
     1 TSK         1 TEMP              0 ****  ****    0 ROOT
