@<TRIPOS>MOLECULE
TSL
   27    26     1     0     0
SMALL
No Charge or Current Charge


@<TRIPOS>ATOM
      1 C14          1.3360    -1.1720    -1.9690 c3         1 TSL      -0.062600
      2 C2           1.5050    -0.1730    -0.7820 c3         1 TSL       0.018300
      3 S1           1.7300    -1.1070     0.8480 s4         1 TSL       0.575500
      4 O12          3.0780    -1.9770     0.2980 oh         1 TSL      -0.667800
      5 O13          0.5650    -2.0630     0.9970 o          1 TSL      -0.547000
      6 C20          2.7550     0.7180    -1.0450 c3         1 TSL      -0.062600
      7 C3           0.2200     0.7290    -0.6670 c3         1 TSL       0.089500
      8 C9           0.3920     1.9520     0.3210 c          1 TSL       0.716000
      9 O11          0.2020     3.0770    -0.1230 o          1 TSL      -0.704500
     10 O10          0.6630     1.7400     1.4960 o          1 TSL      -0.704500
     11 N4          -0.9990    -0.0900    -0.3740 nu         1 TSL      -0.770200
     12 C5          -2.2950     0.3810    -0.4620 c2         1 TSL       0.164000
     13 C6          -3.2680    -0.4100     0.0090 ce         1 TSL      -0.551200
     14 C7          -4.6930    -0.0190    -0.0300 c          1 TSL       0.605100
     15 O8          -5.5800    -0.7440     0.4000 o          1 TSL      -0.625100
     16 H141         0.5290    -1.8890    -1.7800 hc         1 TSL       0.034700
     17 H142         1.0970    -0.6340    -2.8940 hc         1 TSL       0.034700
     18 H143         2.2530    -1.7440    -2.1550 hc         1 TSL       0.034700
     19 H12          3.7940    -1.3140     0.2370 ho         1 TSL       0.452000
     20 H201         2.5780     1.3880    -1.8960 hc         1 TSL       0.034700
     21 H202         3.0000     1.3360    -0.1730 hc         1 TSL       0.034700
     22 H203         3.6390     0.1160    -1.2850 hc         1 TSL       0.034700
     23 H3           0.0750     1.1810    -1.6580 h1         1 TSL       0.046700
     24 HN4         -0.8490    -0.9540     0.1610 hn         1 TSL       0.518000
     25 H5          -2.4490     1.3700    -0.9120 h4         1 TSL       0.174000
     26 H6          -3.0610    -1.3850     0.4440 ha         1 TSL       0.190000
     27 H7          -4.9210     0.9760    -0.4730 h4         1 TSL      -0.061800
@<TRIPOS>BOND
     1     1     2 1   
     2     1    16 1   
     3     1    17 1   
     4     1    18 1   
     5     2     3 1   
     6     2     6 1   
     7     2     7 1   
     8     3     4 1   
     9     3     5 2   
    10     4    19 1   
    11     6    20 1   
    12     6    21 1   
    13     6    22 1   
    14     7     8 1   
    15     7    11 1   
    16     7    23 1   
    17     8     9 1   
    18     8    10 1   
    19    11    12 1   
    20    11    24 1   
    21    12    13 2   
    22    12    25 1   
    23    13    14 1   
    24    13    26 1   
    25    14    15 2   
    26    14    27 1   
@<TRIPOS>SUBSTRUCTURE
     1 TSL         1 TEMP              0 ****  ****    0 ROOT
