@<TRIPOS>MOLECULE
TSL
   27    26     1     0     0
SMALL
bcc


@<TRIPOS>ATOM
      1 C14          1.0890    -1.1880    -1.7480 c3         1 TSL      -0.062600
      2 C2           1.4780    -0.0700    -0.7860 c3         1 TSL       0.018300
      3 S1           2.2360    -0.7550     0.7620 s4         1 TSL       0.548700
      4 O12          3.0900    -1.9540    -0.0140 oh         1 TSL      -0.628800
      5 O13          1.1180    -1.4570     1.4640 o          1 TSL      -0.520200
      6 C20          2.5240     0.8370    -1.4230 c3         1 TSL      -0.062600
      7 C3           0.2350     0.7540    -0.4090 c3         1 TSL       0.089500
      8 C9           0.4400     1.7850     0.7340 c          1 TSL       0.926600
      9 O11         -0.4190     2.6730     0.8170 o          1 TSL      -0.809800
     10 O10          1.4230     1.5980     1.4790 o          1 TSL      -0.809800
     11 N4          -0.9020    -0.0790    -0.0740 nu         1 TSL      -0.715000
     12 C5          -2.1410     0.1940    -0.4520 c2         1 TSL       0.214000
     13 C6          -3.2810    -0.4360    -0.0300 ce         1 TSL      -0.501200
     14 C7          -4.5270    -0.0250    -0.5790 c          1 TSL       0.605100
     15 O8          -5.6320    -0.4840    -0.3070 o          1 TSL      -0.625100
     16 H141         0.5010    -1.9740    -1.2760 hc         1 TSL       0.034700
     17 H142         0.4790    -0.7610    -2.5480 hc         1 TSL       0.034700
     18 H143         1.9630    -1.6410    -2.2110 hc         1 TSL       0.034700
     19 H12          3.9570    -2.0110     0.4100 ho         1 TSL       0.413000
     20 H201         2.1290     1.2490    -2.3540 hc         1 TSL       0.034700
     21 H202         2.8040     1.6700    -0.7790 hc         1 TSL       0.034700
     22 H203         3.4280     0.2810    -1.6730 hc         1 TSL       0.034700
     23 H3          -0.0410     1.3050    -1.3140 h1         1 TSL       0.046700
     24 HN4         -0.7430    -0.7800     0.6390 hn         1 TSL       0.462800
     25 H5          -2.2260     0.9890    -1.1880 h4         1 TSL       0.124000
     26 H6          -3.2450    -1.2280     0.7100 ha         1 TSL       0.140000
     27 H7          -4.4430     0.7970    -1.3180 h4         1 TSL      -0.061800
@<TRIPOS>BOND
     1     1     2 1   
     2     1    16 1   
     3     1    17 1   
     4     1    18 1   
     5     2     3 1   
     6     2     6 1   
     7     2     7 1   
     8     3     4 1   
     9     3     5 2   
    10     4    19 1   
    11     6    20 1   
    12     6    21 1   
    13     6    22 1   
    14     7     8 1   
    15     7    11 1   
    16     7    23 1   
    17     8     9 1   
    18     8    10 1   
    19    11    12 1   
    20    11    24 1   
    21    12    13 2   
    22    12    25 1   
    23    13    14 1   
    24    13    26 1   
    25    14    15 2   
    26    14    27 1   
@<TRIPOS>SUBSTRUCTURE
     1 TSL         1 TEMP              0 ****  ****    0 ROOT
