@<TRIPOS>MOLECULE
TSM
   17    16     1     0     0
SMALL
bcc


@<TRIPOS>ATOM
      1 S            0.7460    -0.0080    -0.0750 s6         1 TSM       1.202800
      2 O1S          1.0900    -1.2430    -0.8120 o          1 TSM      -0.694200
      3 O2S          1.1080     1.2190    -0.8190 o          1 TSM      -0.694200
      4 C           -1.0780     0.0060     0.0620 c3         1 TSM      -0.193200
      5 C1          -1.4980     1.2620     0.8180 c3         1 TSM      -0.050100
      6 C2          -1.6660     0.0100    -1.3450 c3         1 TSM      -0.050100
      7 C3          -1.5150    -1.2440     0.8180 c3         1 TSM      -0.050100
      8 H11         -1.1460     2.1660     0.3210 hc         1 TSM       0.024700
      9 H12         -2.5870     1.3120     0.8680 hc         1 TSM       0.024700
     10 H13         -1.1190     1.2610     1.8400 hc         1 TSM       0.024700
     11 H21         -1.3700    -0.8750    -1.9070 hc         1 TSM       0.024700
     12 H22         -2.7560     0.0180    -1.2850 hc         1 TSM       0.024700
     13 H23         -1.3580     0.8930    -1.9060 hc         1 TSM       0.024700
     14 H31         -1.1270    -1.2550     1.8360 hc         1 TSM       0.024700
     15 H32         -2.6050    -1.2730     0.8790 hc         1 TSM       0.024700
     16 H33         -1.1870    -2.1530     0.3140 hc         1 TSM       0.024700
     17 O3           1.2630    -0.0070     1.3110 o          1 TSM      -0.694200
@<TRIPOS>BOND
     1     1     2 1   
     2     1     3 1   
     3     1     4 1   
     4     1    17 1   
     5     4     5 1   
     6     4     6 1   
     7     4     7 1   
     8     5     8 1   
     9     5     9 1   
    10     5    10 1   
    11     6    11 1   
    12     6    12 1   
    13     6    13 1   
    14     7    14 1   
    15     7    15 1   
    16     7    16 1   
@<TRIPOS>SUBSTRUCTURE
     1 TSM         1 TEMP              0 ****  ****    0 ROOT
