@<TRIPOS>MOLECULE
TSM
   17    16     1     0     0
SMALL
No Charge or Current Charge


@<TRIPOS>ATOM
      1 S            0.8060    -0.0080    -0.0720 s6         1 TSM       1.313600
      2 O1S          1.1120    -1.2450    -0.8090 o          1 TSM      -0.694200
      3 O2S          1.1310     1.2230    -0.8090 o          1 TSM      -0.694200
      4 C           -1.0460     0.0060     0.0580 c3         1 TSM      -0.304000
      5 C1          -1.5100     1.2780     0.8260 c3         1 TSM      -0.050100
      6 C2          -1.6730     0.0100    -1.3670 c3         1 TSM      -0.050100
      7 C3          -1.5290    -1.2600     0.8260 c3         1 TSM      -0.050100
      8 H11         -1.1960     2.1930     0.3070 hc         1 TSM       0.024700
      9 H12         -2.6030     1.3040     0.9130 hc         1 TSM       0.024700
     10 H13         -1.0950     1.3040     1.8410 hc         1 TSM       0.024700
     11 H21         -1.3770    -0.8790    -1.9360 hc         1 TSM       0.024700
     12 H22         -2.7690     0.0190    -1.3100 hc         1 TSM       0.024700
     13 H23         -1.3640     0.8960    -1.9350 hc         1 TSM       0.024700
     14 H31         -1.1140    -1.2920     1.8410 hc         1 TSM       0.024700
     15 H32         -2.6220    -1.2690     0.9130 hc         1 TSM       0.024700
     16 H33         -1.2290    -2.1790     0.3070 hc         1 TSM       0.024700
     17 O3           1.2720    -0.0120     1.3240 o          1 TSM      -0.694200
@<TRIPOS>BOND
     1     1     2 1   
     2     1     3 1   
     3     1     4 1   
     4     1    17 1   
     5     4     5 1   
     6     4     6 1   
     7     4     7 1   
     8     5     8 1   
     9     5     9 1   
    10     5    10 1   
    11     6    11 1   
    12     6    12 1   
    13     6    13 1   
    14     7    14 1   
    15     7    15 1   
    16     7    16 1   
@<TRIPOS>SUBSTRUCTURE
     1 TSM         1 TEMP              0 ****  ****    0 ROOT
