@<TRIPOS>MOLECULE
TSN
   44    44     1     0     0
SMALL
No Charge or Current Charge


@<TRIPOS>ATOM
      1 O1          -2.0400    -1.2900     7.5280 oh         1 TSN      -0.430100
      2 O2           0.2540    -0.2360     6.2810 o          1 TSN      -0.574100
      3 N1          -1.8320    -1.1710     6.0990 ns         1 TSN      -0.384400
      4 N2          -1.4440    -0.4380    -5.6150 nh         1 TSN      -0.824400
      5 C1           0.9300     0.2620    -2.1500 ca         1 TSN      -0.243600
      6 C2           0.6880    -1.0510    -2.6010 ca         1 TSN      -0.010000
      7 C3          -0.0970    -1.2780    -3.7420 ca         1 TSN      -0.218500
      8 C4          -0.6520    -0.2050    -4.4620 ca         1 TSN       0.373000
      9 C5          -0.3990     1.1050    -4.0170 ca         1 TSN      -0.218500
     10 C6           0.3850     1.3420    -2.8760 ca         1 TSN      -0.010000
     11 C7           1.7780     0.4790    -0.9170 c          1 TSN       0.599700
     12 C8           1.5190     1.7090    -0.0120 c3         1 TSN      -0.131500
     13 C9           1.3190     1.3090     1.4470 c2         1 TSN      -0.155200
     14 C10          0.2420     0.6920     1.9940 ce         1 TSN      -0.110200
     15 C11          0.2340     0.3760     3.4370 ce         1 TSN      -0.079000
     16 C12         -0.7680    -0.2440     4.1320 cf         1 TSN      -0.319200
     17 C13         -0.7110    -0.5320     5.5890 c          1 TSN       0.604300
     18 C14          2.6490     2.7540    -0.1760 c3         1 TSN      -0.082100
     19 C15         -0.9900     0.2890     1.1860 c3         1 TSN      -0.052900
     20 C17         -1.2480    -1.6390    -6.4600 c3         1 TSN       0.218100
     21 C16         -2.5090     0.5090    -6.0260 c3         1 TSN       0.218100
     22 HO1         -2.2470    -2.2470     7.6530 ho         1 TSN       0.446000
     23 HN1         -2.6610    -1.2630     5.5150 hn         1 TSN       0.329500
     24 H21          1.1000    -1.9020    -2.0600 ha         1 TSN       0.118500
     25 H31         -0.2800    -2.3010    -4.0550 ha         1 TSN       0.114500
     26 H51         -0.7950     1.9550    -4.5630 ha         1 TSN       0.114500
     27 H61          0.5760     2.3710    -2.5790 ha         1 TSN       0.118500
     28 H8           0.6060     2.2040    -0.3570 hc         1 TSN       0.065700
     29 H9           2.1700     1.5590     2.0860 ha         1 TSN       0.189000
     30 H111         1.1260     0.6760     3.9930 ha         1 TSN       0.198000
     31 H121        -1.6730    -0.5590     3.6170 ha         1 TSN       0.178000
     32 H141         3.6140     2.3430     0.1470 hc         1 TSN       0.044033
     33 H142         2.7430     3.0620    -1.2240 hc         1 TSN       0.044033
     34 H143         2.4380     3.6490     0.4230 hc         1 TSN       0.044033
     35 H151        -0.9220     0.5540     0.1270 hc         1 TSN       0.041367
     36 H152        -1.1510    -0.7950     1.2300 hc         1 TSN       0.041367
     37 H153        -1.8920     0.7770     1.5750 hc         1 TSN       0.041367
     38 H171        -1.5930    -1.4560    -7.4870 h1         1 TSN       0.039367
     39 H172        -0.1830    -1.9050    -6.5120 h1         1 TSN       0.039367
     40 H173        -1.8060    -2.4930    -6.0530 h1         1 TSN       0.039367
     41 H161        -2.0880     1.3210    -6.6340 h1         1 TSN       0.039367
     42 H162        -3.2820    -0.0030    -6.6150 h1         1 TSN       0.039367
     43 H163        -2.9990     0.9450    -5.1450 h1         1 TSN       0.039367
     44 O3           2.6750    -0.3120    -0.6450 o          1 TSN      -0.535100
@<TRIPOS>BOND
     1     1     3 1   
     2     1    22 1   
     3     2    17 2   
     4     3    17 1   
     5     3    23 1   
     6     4     8 1   
     7     4    20 1   
     8     4    21 1   
     9     5     6 ar  
    10     5    10 ar  
    11     5    11 1   
    12     6     7 ar  
    13     6    24 1   
    14     7     8 ar  
    15     7    25 1   
    16     8     9 ar  
    17     9    10 ar  
    18     9    26 1   
    19    10    27 1   
    20    11    12 1   
    21    11    44 2   
    22    12    13 1   
    23    12    18 1   
    24    12    28 1   
    25    13    14 2   
    26    13    29 1   
    27    14    15 1   
    28    14    19 1   
    29    15    16 2   
    30    15    30 1   
    31    16    17 1   
    32    16    31 1   
    33    18    32 1   
    34    18    33 1   
    35    18    34 1   
    36    19    35 1   
    37    19    36 1   
    38    19    37 1   
    39    20    38 1   
    40    20    39 1   
    41    20    40 1   
    42    21    41 1   
    43    21    42 1   
    44    21    43 1   
@<TRIPOS>SUBSTRUCTURE
     1 TSN         1 TEMP              0 ****  ****    0 ROOT
