@<TRIPOS>MOLECULE
TSN
   44    44     1     0     0
SMALL
bcc


@<TRIPOS>ATOM
      1 O1          -0.9380    -0.7200     8.2040 oh         1 TSN      -0.391100
      2 O2           0.9660    -0.6570     6.2830 o          1 TSN      -0.574100
      3 N1          -1.2110    -0.5100     6.8870 ns         1 TSN      -0.451400
      4 N2          -0.9780    -0.2990    -6.1860 nh         1 TSN      -0.686000
      5 C1           0.5700    -0.0830    -2.2870 ca         1 TSN      -0.243600
      6 C2           0.8980    -1.1380    -3.1500 ca         1 TSN      -0.028000
      7 C3           0.4000    -1.2180    -4.4280 ca         1 TSN      -0.236500
      8 C4          -0.4730    -0.2250    -4.9330 ca         1 TSN       0.234600
      9 C5          -0.7960     0.8440    -4.0690 ca         1 TSN      -0.236500
     10 C6          -0.2890     0.9000    -2.7880 ca         1 TSN      -0.028000
     11 C7           1.1380    -0.0620    -0.9310 c          1 TSN       0.599700
     12 C8           0.8120     1.1110    -0.0100 c3         1 TSN      -0.131500
     13 C9           0.8870     0.6900     1.4230 c2         1 TSN      -0.105200
     14 C10         -0.1220     0.6080     2.3060 ce         1 TSN      -0.110200
     15 C11          0.2160     0.1910     3.6600 ce         1 TSN      -0.029000
     16 C12         -0.6510     0.0450     4.6700 cf         1 TSN      -0.269200
     17 C13         -0.1930    -0.3920     6.0040 c          1 TSN       0.671300
     18 C14          1.8220     2.2400    -0.2800 c3         1 TSN      -0.082100
     19 C15         -1.5600     0.9030     2.0040 c3         1 TSN      -0.052900
     20 C17         -0.6260    -1.4070    -7.0480 c3         1 TSN       0.218100
     21 C16         -1.8310     0.7540    -6.6900 c3         1 TSN       0.218100
     22 HO1         -1.0680    -1.6640     8.3570 ho         1 TSN       0.407000
     23 HN1         -2.1190    -0.1040     6.7090 hn         1 TSN       0.329500
     24 H21          1.5640    -1.9200    -2.8070 ha         1 TSN       0.136500
     25 H31          0.6960    -2.0550    -5.0440 ha         1 TSN       0.132500
     26 H51         -1.4530     1.6380    -4.3940 ha         1 TSN       0.132500
     27 H61         -0.5870     1.7430    -2.1790 ha         1 TSN       0.136500
     28 H8          -0.1830     1.4900    -0.2360 hc         1 TSN       0.065700
     29 H9           1.8830     0.4430     1.7790 ha         1 TSN       0.139000
     30 H111         1.2640    -0.0190     3.8490 ha         1 TSN       0.148000
     31 H121        -1.7090     0.2380     4.5350 ha         1 TSN       0.128000
     32 H141         2.8360     1.9220    -0.0320 hc         1 TSN       0.044033
     33 H142         1.8100     2.5490    -1.3250 hc         1 TSN       0.044033
     34 H143         1.5800     3.1100     0.3300 hc         1 TSN       0.044033
     35 H151        -1.7280     1.1810     0.9680 hc         1 TSN       0.041367
     36 H152        -2.1860     0.0330     2.2120 hc         1 TSN       0.041367
     37 H153        -1.9310     1.7180     2.6290 hc         1 TSN       0.041367
     38 H171        -1.1540    -1.3090    -7.9910 h1         1 TSN       0.039367
     39 H172         0.4450    -1.4370    -7.2650 h1         1 TSN       0.039367
     40 H173        -0.9080    -2.3670    -6.6090 h1         1 TSN       0.039367
     41 H161        -1.3180     1.7180    -6.7160 h1         1 TSN       0.039367
     42 H162        -2.1400     0.5140    -7.7020 h1         1 TSN       0.039367
     43 H163        -2.7350     0.8690    -6.0870 h1         1 TSN       0.039367
     44 O3           1.8870    -0.9420    -0.5450 o          1 TSN      -0.535100
@<TRIPOS>BOND
     1     1     3 1   
     2     1    22 1   
     3     2    17 2   
     4     3    17 1   
     5     3    23 1   
     6     4     8 1   
     7     4    20 1   
     8     4    21 1   
     9     5     6 ar  
    10     5    10 ar  
    11     5    11 1   
    12     6     7 ar  
    13     6    24 1   
    14     7     8 ar  
    15     7    25 1   
    16     8     9 ar  
    17     9    10 ar  
    18     9    26 1   
    19    10    27 1   
    20    11    12 1   
    21    11    44 2   
    22    12    13 1   
    23    12    18 1   
    24    12    28 1   
    25    13    14 2   
    26    13    29 1   
    27    14    15 1   
    28    14    19 1   
    29    15    16 2   
    30    15    30 1   
    31    16    17 1   
    32    16    31 1   
    33    18    32 1   
    34    18    33 1   
    35    18    34 1   
    36    19    35 1   
    37    19    36 1   
    38    19    37 1   
    39    20    38 1   
    40    20    39 1   
    41    20    40 1   
    42    21    41 1   
    43    21    42 1   
    44    21    43 1   
@<TRIPOS>SUBSTRUCTURE
     1 TSN         1 TEMP              0 ****  ****    0 ROOT
