@<TRIPOS>MOLECULE
TSQ
   34    34     1     0     0
SMALL
bcc


@<TRIPOS>ATOM
      1 CE2          4.3210    14.9970    35.6230 ca         1 TSQ      -0.095500
      2 CB           5.8670    11.8020    36.9710 c3         1 TSQ      -0.022100
      3 CA           5.7200    10.7530    35.8630 c3         1 TSQ       0.027500
      4 C            6.7510     9.6030    36.0170 c          1 TSQ       0.932600
      5 C1           0.9450    16.1950    34.4830 c3         1 TSQ       0.000033
      6 C2           0.7760    16.7160    37.5140 c3         1 TSQ       0.000033
      7 C3           2.9320    18.1300    35.8160 c3         1 TSQ       0.000033
      8 CZ           3.1330    15.1150    36.3540 ca         1 TSQ       0.006500
      9 CE1          2.8720    14.1270    37.3040 ca         1 TSQ      -0.095500
     10 CD1          3.7480    13.0690    37.5130 ca         1 TSQ      -0.143500
     11 CG           4.9280    12.9590    36.7830 ca         1 TSQ      -0.023300
     12 CD2          5.1990    13.9450    35.8330 ca         1 TSQ      -0.143500
     13 N            4.3610    10.2370    35.8420 n8         1 TSQ      -0.894800
     14 O            6.3580     8.4540    35.7340 o          1 TSQ      -0.833800
     15 OXT          7.8990     9.9340    36.3690 o          1 TSQ      -0.833800
     16 SI1          1.9420    16.5420    36.0450 s6         1 TSQ      -0.578900
     17 H1           4.5750    15.7430    34.8780 ha         1 TSQ       0.108000
     18 H2           5.6790    11.3280    37.9380 hc         1 TSQ       0.059700
     19 H3           6.8960    12.1620    36.9790 hc         1 TSQ       0.059700
     20 H4           5.9870    11.2520    34.9140 h1         1 TSQ      -0.003300
     21 H5           0.3380    15.2940    34.5910 h1         1 TSQ       0.048589
     22 H6           0.2700    17.0220    34.2540 h1         1 TSQ       0.048589
     23 H7           1.5970    16.0530    33.6200 h1         1 TSQ       0.048589
     24 H8           1.3220    16.9010    38.4410 h1         1 TSQ       0.048589
     25 H9           0.0920    17.5530    37.3620 h1         1 TSQ       0.048589
     26 H10          0.1680    15.8220    37.6600 h1         1 TSQ       0.048589
     27 H11          3.5170    18.3660    36.7060 h1         1 TSQ       0.048589
     28 H12          3.6230    18.0560    34.9750 h1         1 TSQ       0.048589
     29 H13          2.2690    18.9750    35.6200 h1         1 TSQ       0.048589
     30 H14          1.9680    14.1740    37.9020 ha         1 TSQ       0.108000
     31 H15          3.5150    12.3190    38.2600 ha         1 TSQ       0.135000
     32 H16          6.1130    13.8880    35.2520 ha         1 TSQ       0.135000
     33 H17          3.7520    10.8770    35.3500 hn         1 TSQ       0.330300
     34 H18          4.3640     9.3690    35.3220 hn         1 TSQ       0.330300
@<TRIPOS>BOND
     1     1     8 ar  
     2     1    12 ar  
     3     1    17 1   
     4     2     3 1   
     5     2    11 1   
     6     2    18 1   
     7     2    19 1   
     8     3     4 1   
     9     3    13 1   
    10     3    20 1   
    11     4    14 1   
    12     4    15 1   
    13     5    16 1   
    14     5    21 1   
    15     5    22 1   
    16     5    23 1   
    17     6    16 1   
    18     6    24 1   
    19     6    25 1   
    20     6    26 1   
    21     7    16 1   
    22     7    27 1   
    23     7    28 1   
    24     7    29 1   
    25     8     9 ar  
    26     8    16 1   
    27     9    10 ar  
    28     9    30 1   
    29    10    11 ar  
    30    10    31 1   
    31    11    12 ar  
    32    12    32 1   
    33    13    33 1   
    34    13    34 1   
@<TRIPOS>SUBSTRUCTURE
     1 TSQ         1 TEMP              0 ****  ****    0 ROOT
