@<TRIPOS>MOLECULE
TSQ
   34    34     1     0     0
SMALL
No Charge or Current Charge


@<TRIPOS>ATOM
      1 CE2          4.1220    14.8820    35.3940 ca         1 TSQ      -0.077500
      2 CB           5.8820    11.8320    36.9300 c3         1 TSQ      -0.022100
      3 CA           5.6900    10.6580    35.9290 c3         1 TSQ       0.027500
      4 C            6.8790     9.6030    36.0090 c          1 TSQ       0.722000
      5 C1           1.1060    16.2930    34.4620 c3         1 TSQ      -0.110767
      6 C2           0.7160    16.6540    37.3830 c3         1 TSQ      -0.110767
      7 C3           2.9020    18.0690    35.9560 c3         1 TSQ      -0.110767
      8 CZ           3.1010    15.1320    36.3280 ca         1 TSQ       0.006500
      9 CE1          2.9830    14.3040    37.4610 ca         1 TSQ      -0.077500
     10 CD1          3.8790    13.2380    37.6550 ca         1 TSQ      -0.125500
     11 CG           4.9010    12.9840    36.7190 ca         1 TSQ      -0.023300
     12 CD2          5.0180    13.8160    35.5880 ca         1 TSQ      -0.125500
     13 N            4.2920    10.0990    36.0300 n8         1 TSQ      -1.005200
     14 O            7.1810     9.0030    34.9840 o          1 TSQ      -0.728500
     15 OXT          7.4590     9.4270    37.0740 o          1 TSQ      -0.728500
     16 SI1          1.9430    16.5330    36.0520 s6         1 TSQ      -0.246500
     17 H1           4.2230    15.5160    34.5170 ha         1 TSQ       0.090000
     18 H2           5.8060    11.4480    37.9550 hc         1 TSQ       0.059700
     19 H3           6.9050    12.2140    36.8280 hc         1 TSQ       0.059700
     20 H4           5.7520    11.0970    34.9240 h1         1 TSQ      -0.003300
     21 H5           0.5680    15.3370    34.4910 h1         1 TSQ       0.048589
     22 H6           0.4040    17.1210    34.3060 h1         1 TSQ       0.048589
     23 H7           1.8610    16.2790    33.6650 h1         1 TSQ       0.048589
     24 H8           1.2420    16.8130    38.3330 h1         1 TSQ       0.048589
     25 H9           0.0520    17.5010    37.1720 h1         1 TSQ       0.048589
     26 H10          0.1400    15.7210    37.4170 h1         1 TSQ       0.048589
     27 H11          3.4560    18.1960    36.8950 h1         1 TSQ       0.048589
     28 H12          3.5980    17.9980    35.1120 h1         1 TSQ       0.048589
     29 H13          2.2090    18.9070    35.8080 h1         1 TSQ       0.048589
     30 H14          2.2020    14.4810    38.1940 ha         1 TSQ       0.090000
     31 H15          3.7760    12.6060    38.5340 ha         1 TSQ       0.117000
     32 H16          5.8040    13.6370    34.8590 ha         1 TSQ       0.117000
     33 H17          3.6200    10.8620    35.8880 hn         1 TSQ       0.385500
     34 H18          4.1250     9.4700    35.2350 hn         1 TSQ       0.385500
@<TRIPOS>BOND
     1     1     8 ar  
     2     1    12 ar  
     3     1    17 1   
     4     2     3 1   
     5     2    11 1   
     6     2    18 1   
     7     2    19 1   
     8     3     4 1   
     9     3    13 1   
    10     3    20 1   
    11     4    14 1   
    12     4    15 1   
    13     5    16 1   
    14     5    21 1   
    15     5    22 1   
    16     5    23 1   
    17     6    16 1   
    18     6    24 1   
    19     6    25 1   
    20     6    26 1   
    21     7    16 1   
    22     7    27 1   
    23     7    28 1   
    24     7    29 1   
    25     8     9 ar  
    26     8    16 1   
    27     9    10 ar  
    28     9    30 1   
    29    10    11 ar  
    30    10    31 1   
    31    11    12 ar  
    32    12    32 1   
    33    13    33 1   
    34    13    34 1   
@<TRIPOS>SUBSTRUCTURE
     1 TSQ         1 TEMP              0 ****  ****    0 ROOT
