@<TRIPOS>MOLECULE
TSR
   23    24     1     0     0
SMALL
abcg2


@<TRIPOS>ATOM
      1 O1           2.4070     0.1820     1.4460 o          1 TSR      -0.590100
      2 CA           2.6320     0.3820     0.2630 c          1 TSR       0.601100
      3 N            3.5060     1.3030    -0.1730 nt         1 TSR      -0.618000
      4 CB           1.9550    -0.4210    -0.8390 c3         1 TSR      -0.079200
      5 CG           0.5760    -0.8460    -0.4800 cc         1 TSR      -0.132400
      6 CD1          0.1260    -2.1190    -0.2790 cd         1 TSR      -0.142100
      7 NE1         -1.2070    -2.1040     0.0250 na         1 TSR      -0.223700
      8 CE2         -1.6540    -0.8150     0.0280 ca         1 TSR      -0.044200
      9 CD2         -0.5540     0.0120    -0.2890 ca         1 TSR      -0.086800
     10 CZ2         -2.9230    -0.2960     0.2800 ca         1 TSR      -0.128000
     11 CH2         -3.0760     1.0750     0.2100 ca         1 TSR      -0.092000
     12 CZ3         -1.9950     1.9170    -0.1020 ca         1 TSR      -0.140000
     13 CE3         -0.7390     1.3980    -0.3500 ca         1 TSR      -0.058000
     14 HN1          4.0620     1.8310     0.4800 hn         1 TSR       0.310000
     15 HN2          3.6930     1.4340    -1.1510 hn         1 TSR       0.310000
     16 HB1          1.9570     0.1470    -1.7740 hc         1 TSR       0.055700
     17 HB2          2.5800    -1.3000    -1.0220 hc         1 TSR       0.055700
     18 HD1          0.6660    -3.0510    -0.3340 h4         1 TSR       0.211000
     19 HE1         -1.7640    -2.9200     0.2150 hn         1 TSR       0.350000
     20 HZ2         -3.7590    -0.9420     0.5220 ha         1 TSR       0.112000
     21 HH2         -4.0490     1.5110     0.4010 ha         1 TSR       0.108000
     22 HZ3         -2.1520     2.9870    -0.1460 ha         1 TSR       0.109000
     23 HE3          0.0890     2.0560    -0.5850 ha         1 TSR       0.111000
@<TRIPOS>BOND
     1     1     2 2   
     2     2     3 1   
     3     2     4 1   
     4     3    14 1   
     5     3    15 1   
     6     4     5 1   
     7     4    16 1   
     8     4    17 1   
     9     5     6 2   
    10     5     9 1   
    11     6     7 1   
    12     6    18 1   
    13     7     8 1   
    14     7    19 1   
    15     8     9 ar  
    16     8    10 ar  
    17     9    13 ar  
    18    10    11 ar  
    19    10    20 1   
    20    11    12 ar  
    21    11    21 1   
    22    12    13 ar  
    23    12    22 1   
    24    13    23 1   
@<TRIPOS>SUBSTRUCTURE
     1 TSR         1 TEMP              0 ****  ****    0 ROOT
