@<TRIPOS>MOLECULE
TSR
   23    24     1     0     0
SMALL
No Charge or Current Charge


@<TRIPOS>ATOM
      1 O1           3.3210    -0.5940     1.1250 o          1 TSR      -0.590100
      2 CA           2.8510     0.0810     0.2230 c          1 TSR       0.601100
      3 N            3.0760     1.4140     0.1860 nt         1 TSR      -0.618000
      4 CB           1.9980    -0.5020    -0.9130 c3         1 TSR      -0.079200
      5 CG           0.6020    -0.8850    -0.4860 cc         1 TSR      -0.132400
      6 CD1          0.1480    -2.1500    -0.1250 cd         1 TSR      -0.142100
      7 NE1         -1.2250    -2.0850     0.2170 na         1 TSR      -0.223700
      8 CE2         -1.5930    -0.7620     0.0580 ca         1 TSR      -0.044200
      9 CD2         -0.5310    -0.0110    -0.3620 ca         1 TSR      -0.086800
     10 CZ2         -2.8540    -0.1900     0.2750 ca         1 TSR      -0.128000
     11 CH2         -3.0060     1.1940     0.0470 ca         1 TSR      -0.092000
     12 CZ3         -1.9060     1.9700    -0.3880 ca         1 TSR      -0.140000
     13 CE3         -0.6470     1.3680    -0.5980 ca         1 TSR      -0.058000
     14 HN1          3.6320     1.8410     0.9120 hn         1 TSR       0.310000
     15 HN2          2.6920     1.9720    -0.5620 hn         1 TSR       0.310000
     16 HB1          1.9240     0.2290    -1.7270 hc         1 TSR       0.055700
     17 HB2          2.5040    -1.3980    -1.2910 hc         1 TSR       0.055700
     18 HD1          0.7010    -3.0860    -0.0840 h4         1 TSR       0.211000
     19 HE1         -1.8180    -2.8520     0.5190 hn         1 TSR       0.350000
     20 HZ2         -3.6940    -0.7950     0.6090 ha         1 TSR       0.112000
     21 HH2         -3.9730     1.6660     0.2060 ha         1 TSR       0.108000
     22 HZ3         -2.0300     3.0370    -0.5620 ha         1 TSR       0.109000
     23 HE3          0.2030     1.9560    -0.9330 ha         1 TSR       0.111000
@<TRIPOS>BOND
     1     1     2 2   
     2     2     3 1   
     3     2     4 1   
     4     3    14 1   
     5     3    15 1   
     6     4     5 1   
     7     4    16 1   
     8     4    17 1   
     9     5     6 2   
    10     5     9 1   
    11     6     7 1   
    12     6    18 1   
    13     7     8 1   
    14     7    19 1   
    15     8     9 ar  
    16     8    10 ar  
    17     9    13 ar  
    18    10    11 ar  
    19    10    20 1   
    20    11    12 ar  
    21    11    21 1   
    22    12    13 ar  
    23    12    22 1   
    24    13    23 1   
@<TRIPOS>SUBSTRUCTURE
     1 TSR         1 TEMP              0 ****  ****    0 ROOT
