@<TRIPOS>MOLECULE
TSS
   24    25     1     0     0
SMALL
No Charge or Current Charge


@<TRIPOS>ATOM
      1 N1           4.9310    -2.1790    40.5310 n8         1 TSS      -0.993200
      2 CA           5.6000    -1.6630    39.3140 c3         1 TSS       0.139800
      3 CB           7.1370    -1.6570    39.4610 c3         1 TSS      -0.039200
      4 CG           7.8360    -1.1260    38.2360 cc         1 TSS      -0.135400
      5 CD1          8.4890     0.0960    38.1000 cd         1 TSS      -0.153100
      6 NE1          9.0000     0.2190    36.7850 na         1 TSS      -0.234700
      7 CE2          8.6490    -0.9460    36.1300 ca         1 TSS      -0.043200
      8 CD2          7.9540    -1.7780    36.9620 ca         1 TSS      -0.095800
      9 CZ2          8.9310    -1.3040    34.8040 ca         1 TSS      -0.130000
     10 CH2          8.4770    -2.5580    34.3420 ca         1 TSS      -0.091000
     11 CZ3          7.7600    -3.4200    35.2060 ca         1 TSS      -0.142000
     12 CE3          7.4920    -3.0330    36.5370 ca         1 TSS      -0.062000
     13 HN11         5.2320    -1.6210    41.3390 hn         1 TSS       0.389000
     14 HN12         5.2920    -3.1180    40.7380 hn         1 TSS       0.389000
     15 HA1          5.2490    -0.6390    39.1200 h1         1 TSS       0.056700
     16 HA2          5.3140    -2.2890    38.4570 h1         1 TSS       0.056700
     17 HB1          7.4870    -2.6770    39.6640 hc         1 TSS       0.040700
     18 HB2          7.4150    -1.0510    40.3320 hc         1 TSS       0.040700
     19 HD1          8.6200     0.8830    38.8390 h4         1 TSS       0.212000
     20 HE1          9.5180     1.0040    36.4000 hn         1 TSS       0.350000
     21 HZ2          9.4850    -0.6360    34.1490 ha         1 TSS       0.112000
     22 HH2          8.6800    -2.8640    33.3180 ha         1 TSS       0.110000
     23 HZ3          7.4150    -4.3860    34.8440 ha         1 TSS       0.111000
     24 HE3          6.9450    -3.6890    37.2090 ha         1 TSS       0.113000
@<TRIPOS>BOND
     1     1     2 1   
     2     1    13 1   
     3     1    14 1   
     4     2     3 1   
     5     2    15 1   
     6     2    16 1   
     7     3     4 1   
     8     3    17 1   
     9     3    18 1   
    10     4     5 2   
    11     4     8 1   
    12     5     6 1   
    13     5    19 1   
    14     6     7 1   
    15     6    20 1   
    16     7     8 ar  
    17     7     9 ar  
    18     8    12 ar  
    19     9    10 ar  
    20     9    21 1   
    21    10    11 ar  
    22    10    22 1   
    23    11    12 ar  
    24    11    23 1   
    25    12    24 1   
@<TRIPOS>SUBSTRUCTURE
     1 TSS         1 TEMP              0 ****  ****    0 ROOT
