@<TRIPOS>MOLECULE
TSS
   24    25     1     0     0
SMALL
abcg2


@<TRIPOS>ATOM
      1 N1           4.9050    -2.1040    40.5560 n8         1 TSS      -0.993200
      2 CA           5.6300    -1.4900    39.4390 c3         1 TSS       0.139800
      3 CB           7.1570    -1.6910    39.4610 c3         1 TSS      -0.039200
      4 CG           7.8290    -1.1650    38.2320 cc         1 TSS      -0.135400
      5 CD1          8.3950     0.0720    38.0620 cd         1 TSS      -0.153100
      6 NE1          8.8710     0.2040    36.7730 na         1 TSS      -0.234700
      7 CE2          8.6330    -0.9570    36.0810 ca         1 TSS      -0.043200
      8 CD2          7.9670    -1.8460    36.9710 ca         1 TSS      -0.095800
      9 CZ2          8.9150    -1.3070    34.7600 ca         1 TSS      -0.130000
     10 CH2          8.5360    -2.5710    34.3360 ca         1 TSS      -0.091000
     11 CZ3          7.8800    -3.4680    35.2000 ca         1 TSS      -0.142000
     12 CE3          7.5940    -3.1160    36.5100 ca         1 TSS      -0.062000
     13 HN11         5.2740    -1.7560    41.4350 hn         1 TSS       0.389000
     14 HN12         5.0710    -3.1060    40.5580 hn         1 TSS       0.389000
     15 HA1          5.4120    -0.4180    39.4350 h1         1 TSS       0.056700
     16 HA2          5.2290    -1.8980    38.5070 h1         1 TSS       0.056700
     17 HB1          7.3590    -2.7610    39.5710 hc         1 TSS       0.040700
     18 HB2          7.5620    -1.1910    40.3440 hc         1 TSS       0.040700
     19 HD1          8.4760     0.8890    38.7610 h4         1 TSS       0.212000
     20 HE1          9.3600     1.0060    36.4130 hn         1 TSS       0.350000
     21 HZ2          9.4260    -0.6240    34.0930 ha         1 TSS       0.112000
     22 HH2          8.7570    -2.8800    33.3210 ha         1 TSS       0.110000
     23 HZ3          7.5870    -4.4430    34.8320 ha         1 TSS       0.111000
     24 HE3          7.0840    -3.8130    37.1660 ha         1 TSS       0.113000
@<TRIPOS>BOND
     1     1     2 1   
     2     1    13 1   
     3     1    14 1   
     4     2     3 1   
     5     2    15 1   
     6     2    16 1   
     7     3     4 1   
     8     3    17 1   
     9     3    18 1   
    10     4     5 2   
    11     4     8 1   
    12     5     6 1   
    13     5    19 1   
    14     6     7 1   
    15     6    20 1   
    16     7     8 ar  
    17     7     9 ar  
    18     8    12 ar  
    19     9    10 ar  
    20     9    21 1   
    21    10    11 ar  
    22    10    22 1   
    23    11    12 ar  
    24    11    23 1   
    25    12    24 1   
@<TRIPOS>SUBSTRUCTURE
     1 TSS         1 TEMP              0 ****  ****    0 ROOT
