@<TRIPOS>MOLECULE
TST
   52    53     1     0     0
SMALL
abcg2


@<TRIPOS>ATOM
      1 S1          -1.3120    -4.1520    -1.0340 ss         1 TST      -0.456000
      2 C1          -2.7790    -3.4290    -0.2680 c6         1 TST       0.054600
      3 C2          -2.4250    -2.6340     0.9710 c6         1 TST       0.209800
      4 N1          -1.5730    -1.4800     0.6500 n3         1 TST      -0.736500
      5 C3          -0.2680    -1.8170     0.0720 c6         1 TST       0.129500
      6 C4          -0.4440    -2.5870    -1.2400 c6         1 TST       0.065600
      7 C5           0.5430    -0.5850    -0.3220 c          1 TST       0.595100
      8 N2           1.8510    -0.6860    -0.0880 ns         1 TST      -0.427900
      9 O1           0.0120     0.3580    -0.8860 o          1 TST      -0.614100
     10 C6           2.8040     0.2090    -0.6980 c3         1 TST      -0.041300
     11 C7           4.1580     0.0680    -0.0070 c3         1 TST      -0.071400
     12 C8           2.9490    -0.0320    -2.2240 c          1 TST       0.717000
     13 O2           3.5750     0.8570    -2.8360 o          1 TST      -0.724000
     14 O3           2.4610    -1.0720    -2.6980 o          1 TST      -0.724000
     15 C9           4.1570     0.3260     1.5010 c3         1 TST      -0.063700
     16 C10          5.5710     0.1540     2.0500 c3         1 TST      -0.082100
     17 S2          -1.6170    -0.2120     1.7380 sy         1 TST       1.157600
     18 C11         -2.2140     1.1730     0.8160 ca         1 TST      -0.230500
     19 C12         -3.4140     1.0560     0.1320 ca         1 TST       0.006500
     20 C13         -3.9190     2.1560    -0.5390 ca         1 TST      -0.131000
     21 C14         -3.2490     3.3800    -0.5220 ca         1 TST      -0.029300
     22 C15         -2.0510     3.4690     0.1830 ca         1 TST      -0.131000
     23 C16         -1.5260     2.3740     0.8510 ca         1 TST       0.006500
     24 C17         -3.8120     4.5760    -1.2280 c3         1 TST      -0.050800
     25 O4          -2.6420    -0.5240     2.7270 o          1 TST      -0.556500
     26 O5          -0.2700     0.0790     2.2060 o          1 TST      -0.556500
     27 C18          3.6050     1.7030     1.8500 c3         1 TST      -0.082100
     28 H11         -3.3040    -2.8040    -0.9930 h1         1 TST       0.068200
     29 H12A        -3.4390    -4.2490     0.0140 h1         1 TST       0.068200
     30 H21         -3.3510    -2.2760     1.4140 h1         1 TST       0.058200
     31 H22         -1.9370    -3.2910     1.6980 h1         1 TST       0.058200
     32 H3           0.2970    -2.4460     0.7720 h1         1 TST       0.053700
     33 H41         -0.9790    -1.9640    -1.9590 h1         1 TST       0.111700
     34 H42          0.5410    -2.8050    -1.6520 h1         1 TST       0.111700
     35 HN2          2.1990    -1.5490     0.2990 hn         1 TST       0.297500
     36 H6           2.4460     1.2320    -0.5540 h1         1 TST       0.066700
     37 H71          4.8520     0.7620    -0.4880 hc         1 TST       0.047700
     38 H72          4.5520    -0.9380    -0.1960 hc         1 TST       0.047700
     39 H9           3.5190    -0.4230     1.9840 hc         1 TST       0.039700
     40 H101         5.5970     0.2900     3.1320 hc         1 TST       0.024533
     41 H102         5.9660    -0.8410     1.8320 hc         1 TST       0.024533
     42 H103         6.2540     0.8840     1.6090 hc         1 TST       0.024533
     43 H12         -3.9490     0.1150     0.0940 ha         1 TST       0.127500
     44 H13         -4.8480     2.0610    -1.0870 ha         1 TST       0.107500
     45 H15         -1.5110     4.4070     0.2060 ha         1 TST       0.107500
     46 H16         -0.5860     2.4620     1.3770 ha         1 TST       0.127500
     47 H171        -4.3630     5.2120    -0.5320 hc         1 TST       0.040700
     48 H172        -3.0250     5.1870    -1.6690 hc         1 TST       0.040700
     49 H173        -4.5020     4.2870    -2.0200 hc         1 TST       0.040700
     50 H181         4.1510     2.4920     1.3260 hc         1 TST       0.024533
     51 H182         2.5500     1.7980     1.5900 hc         1 TST       0.024533
     52 H183         3.6910     1.8950     2.9210 hc         1 TST       0.024533
@<TRIPOS>BOND
     1     1     2 1   
     2     1     6 1   
     3     2     3 1   
     4     2    28 1   
     5     2    29 1   
     6     3     4 1   
     7     3    30 1   
     8     3    31 1   
     9     4     5 1   
    10     4    17 1   
    11     5     6 1   
    12     5     7 1   
    13     5    32 1   
    14     6    33 1   
    15     6    34 1   
    16     7     8 1   
    17     7     9 2   
    18     8    10 1   
    19     8    35 1   
    20    10    11 1   
    21    10    12 1   
    22    10    36 1   
    23    11    15 1   
    24    11    37 1   
    25    11    38 1   
    26    12    13 1   
    27    12    14 1   
    28    15    16 1   
    29    15    27 1   
    30    15    39 1   
    31    16    40 1   
    32    16    41 1   
    33    16    42 1   
    34    17    18 1   
    35    17    25 2   
    36    17    26 2   
    37    18    19 ar  
    38    18    23 ar  
    39    19    20 ar  
    40    19    43 1   
    41    20    21 ar  
    42    20    44 1   
    43    21    22 ar  
    44    21    24 1   
    45    22    23 ar  
    46    22    45 1   
    47    23    46 1   
    48    24    47 1   
    49    24    48 1   
    50    24    49 1   
    51    27    50 1   
    52    27    51 1   
    53    27    52 1   
@<TRIPOS>SUBSTRUCTURE
     1 TST         1 TEMP              0 ****  ****    0 ROOT
