@<TRIPOS>MOLECULE
TST
   52    53     1     0     0
SMALL
No Charge or Current Charge


@<TRIPOS>ATOM
      1 S1          -1.3680    -4.5570    -1.2540 ss         1 TST      -0.456000
      2 C1          -2.8220    -3.8550    -0.3730 c6         1 TST       0.054600
      3 C2          -2.4220    -2.9870     0.8400 c6         1 TST       0.209800
      4 N1          -1.6410    -1.7480     0.5090 n3         1 TST      -0.736500
      5 C3          -0.3440    -2.0610    -0.2440 c6         1 TST       0.129500
      6 C4          -0.5220    -2.9380    -1.5230 c6         1 TST       0.065600
      7 C5           0.5890    -0.8680    -0.6760 c          1 TST       0.595100
      8 N2           1.9290    -1.1930    -0.8170 ns         1 TST      -0.427900
      9 O1           0.1970     0.2820    -0.8210 o          1 TST      -0.614100
     10 C6           3.0160    -0.2500    -1.1860 c3         1 TST      -0.041300
     11 C7           3.7910     0.2630     0.0600 c3         1 TST      -0.071400
     12 C8           3.9820    -0.9300    -2.2030 c          1 TST       0.717000
     13 O2           4.2230    -0.3440    -3.2500 o          1 TST      -0.724000
     14 O3           4.3810    -2.0620    -1.9620 o          1 TST      -0.724000
     15 C9           3.0010     1.1930     1.0230 c3         1 TST      -0.063700
     16 C10          3.7880     1.4320     2.3310 c3         1 TST      -0.082100
     17 S2          -1.4430    -0.7210     1.8820 sy         1 TST       1.157600
     18 C11         -1.8040     0.9270     1.2630 ca         1 TST      -0.230500
     19 C12         -2.9690     1.1490     0.5050 ca         1 TST       0.006500
     20 C13         -3.2610     2.4390     0.0270 ca         1 TST      -0.131000
     21 C14         -2.3940     3.5130     0.3010 ca         1 TST      -0.029300
     22 C15         -1.2340     3.2880     1.0670 ca         1 TST      -0.131000
     23 C16         -0.9380     2.0010     1.5480 ca         1 TST       0.006500
     24 C17         -2.7110     4.9070    -0.2160 c3         1 TST      -0.050800
     25 O4          -2.5210    -1.0650     2.8170 o          1 TST      -0.556500
     26 O5          -0.0440    -0.8240     2.3150 o          1 TST      -0.556500
     27 C18          2.6110     2.5420     0.3710 c3         1 TST      -0.082100
     28 H11         -3.4030    -3.2500    -1.0840 h1         1 TST       0.068200
     29 H12A        -3.4550    -4.6890    -0.0390 h1         1 TST       0.068200
     30 H21         -3.3710    -2.7220     1.3290 h1         1 TST       0.058200
     31 H22         -1.8630    -3.6120     1.5520 h1         1 TST       0.058200
     32 H3           0.2860    -2.6560     0.4340 h1         1 TST       0.053700
     33 H41         -1.1080    -2.3690    -2.2600 h1         1 TST       0.111700
     34 H42          0.4560    -3.1490    -1.9810 h1         1 TST       0.111700
     35 HN2          2.1880    -2.1600    -0.6570 hn         1 TST       0.297500
     36 H6           2.5760     0.6070    -1.7110 h1         1 TST       0.066700
     37 H71          4.6850     0.8000    -0.2820 hc         1 TST       0.047700
     38 H72          4.1560    -0.6080     0.6190 hc         1 TST       0.047700
     39 H9           2.0740     0.6790     1.3040 hc         1 TST       0.039700
     40 H101         3.2060     2.0480     3.0270 hc         1 TST       0.024533
     41 H102         4.0110     0.4810     2.8300 hc         1 TST       0.024533
     42 H103         4.7360     1.9450     2.1290 hc         1 TST       0.024533
     43 H12         -3.6460     0.3250     0.2840 ha         1 TST       0.127500
     44 H13         -4.1620     2.6010    -0.5590 ha         1 TST       0.107500
     45 H15         -0.5590     4.1100     1.2890 ha         1 TST       0.107500
     46 H16         -0.0380     1.8440     2.1380 ha         1 TST       0.127500
     47 H171        -3.3040     5.4690     0.5150 hc         1 TST       0.040700
     48 H172        -1.7960     5.4770    -0.4160 hc         1 TST       0.040700
     49 H173        -3.2830     4.8660    -1.1510 hc         1 TST       0.040700
     50 H181         3.5040     3.0850     0.0380 hc         1 TST       0.024533
     51 H182         1.9570     2.3940    -0.4950 hc         1 TST       0.024533
     52 H183         2.0740     3.1750     1.0860 hc         1 TST       0.024533
@<TRIPOS>BOND
     1     1     2 1   
     2     1     6 1   
     3     2     3 1   
     4     2    28 1   
     5     2    29 1   
     6     3     4 1   
     7     3    30 1   
     8     3    31 1   
     9     4     5 1   
    10     4    17 1   
    11     5     6 1   
    12     5     7 1   
    13     5    32 1   
    14     6    33 1   
    15     6    34 1   
    16     7     8 1   
    17     7     9 2   
    18     8    10 1   
    19     8    35 1   
    20    10    11 1   
    21    10    12 1   
    22    10    36 1   
    23    11    15 1   
    24    11    37 1   
    25    11    38 1   
    26    12    13 1   
    27    12    14 1   
    28    15    16 1   
    29    15    27 1   
    30    15    39 1   
    31    16    40 1   
    32    16    41 1   
    33    16    42 1   
    34    17    18 1   
    35    17    25 2   
    36    17    26 2   
    37    18    19 ar  
    38    18    23 ar  
    39    19    20 ar  
    40    19    43 1   
    41    20    21 ar  
    42    20    44 1   
    43    21    22 ar  
    44    21    24 1   
    45    22    23 ar  
    46    22    45 1   
    47    23    46 1   
    48    24    47 1   
    49    24    48 1   
    50    24    49 1   
    51    27    50 1   
    52    27    51 1   
    53    27    52 1   
@<TRIPOS>SUBSTRUCTURE
     1 TST         1 TEMP              0 ****  ****    0 ROOT
