@<TRIPOS>MOLECULE
TSU
   18    18     1     0     0
SMALL
abcg2


@<TRIPOS>ATOM
      1 S           -1.8480    -0.0140    -0.0590 s6         1 TSU       1.262100
      2 O1          -2.2340    -1.2460    -0.7690 o          1 TSU      -0.695533
      3 O2          -2.2510     1.2180    -0.7600 o          1 TSU      -0.695533
      4 O3          -2.2340    -0.0210     1.3630 o          1 TSU      -0.695533
      5 C1          -0.0590    -0.0020    -0.0590 ca         1 TSU      -0.225500
      6 C2           0.6440    -1.1990    -0.0250 ca         1 TSU      -0.023000
      7 C3           2.0300    -1.1860     0.0240 ca         1 TSU      -0.147500
      8 C4           2.7400     0.0130     0.0380 ca         1 TSU      -0.079300
      9 C5           2.0180     1.2050     0.0090 ca         1 TSU      -0.147500
     10 C6           0.6320     1.2020    -0.0400 ca         1 TSU      -0.023000
     11 C7           4.2400     0.0230     0.0500 c3         1 TSU      -0.037800
     12 H2           0.1180    -2.1450    -0.0440 ha         1 TSU       0.126000
     13 H3           2.5690    -2.1260     0.0490 ha         1 TSU       0.087500
     14 H5           2.5460     2.1510     0.0230 ha         1 TSU       0.087500
     15 H6           0.0960     2.1420    -0.0720 ha         1 TSU       0.126000
     16 H71          4.6350     0.0910    -0.9660 hc         1 TSU       0.027033
     17 H72          4.6310     0.8760     0.6050 hc         1 TSU       0.027033
     18 H73          4.6440    -0.8860     0.4950 hc         1 TSU       0.027033
@<TRIPOS>BOND
     1     1     2 1   
     2     1     3 1   
     3     1     4 1   
     4     1     5 1   
     5     5     6 ar  
     6     5    10 ar  
     7     6     7 ar  
     8     6    12 1   
     9     7     8 ar  
    10     7    13 1   
    11     8     9 ar  
    12     8    11 1   
    13     9    10 ar  
    14     9    14 1   
    15    10    15 1   
    16    11    16 1   
    17    11    17 1   
    18    11    18 1   
@<TRIPOS>SUBSTRUCTURE
     1 TSU         1 TEMP              0 ****  ****    0 ROOT
