@<TRIPOS>MOLECULE
TSU
   18    18     1     0     0
SMALL
No Charge or Current Charge


@<TRIPOS>ATOM
      1 S           -1.9400    -0.0140    -0.0670 s6         1 TSU       1.262100
      2 O1          -2.2360    -1.2640    -0.7840 o          1 TSU      -0.695533
      3 O2          -2.2510     1.2350    -0.7800 o          1 TSU      -0.695533
      4 O3          -2.2440    -0.0190     1.3720 o          1 TSU      -0.695533
      5 C1          -0.0870    -0.0030    -0.0430 ca         1 TSU      -0.225500
      6 C2           0.6370    -1.2140    -0.0250 ca         1 TSU      -0.023000
      7 C3           2.0430    -1.2030     0.0030 ca         1 TSU      -0.147500
      8 C4           2.7470     0.0140     0.0190 ca         1 TSU      -0.079300
      9 C5           2.0280     1.2230     0.0070 ca         1 TSU      -0.147500
     10 C6           0.6220     1.2170    -0.0210 ca         1 TSU      -0.023000
     11 C7           4.2670     0.0230     0.0460 c3         1 TSU      -0.037800
     12 H2           0.1120    -2.1680    -0.0310 ha         1 TSU       0.126000
     13 H3           2.5850    -2.1460     0.0120 ha         1 TSU       0.087500
     14 H5           2.5580     2.1720     0.0200 ha         1 TSU       0.087500
     15 H6           0.0850     2.1640    -0.0230 ha         1 TSU       0.126000
     16 H71          4.6750     0.0280    -0.9710 hc         1 TSU       0.027033
     17 H72          4.6530     0.9090     0.5660 hc         1 TSU       0.027033
     18 H73          4.6630    -0.8590     0.5630 hc         1 TSU       0.027033
@<TRIPOS>BOND
     1     1     2 1   
     2     1     3 1   
     3     1     4 1   
     4     1     5 1   
     5     5     6 ar  
     6     5    10 ar  
     7     6     7 ar  
     8     6    12 1   
     9     7     8 ar  
    10     7    13 1   
    11     8     9 ar  
    12     8    11 1   
    13     9    10 ar  
    14     9    14 1   
    15    10    15 1   
    16    11    16 1   
    17    11    17 1   
    18    11    18 1   
@<TRIPOS>SUBSTRUCTURE
     1 TSU         1 TEMP              0 ****  ****    0 ROOT
