@<TRIPOS>MOLECULE
TSV
   95   100     1     0     0
SMALL
No Charge or Current Charge


@<TRIPOS>ATOM
      1 C1          -4.4500     0.7100     3.1610 cx         1 TSV      -0.099400
      2 F1           7.1170     4.9570    -1.2430 f          1 TSV      -0.180000
      3 N1           1.1960    -4.1390     1.4670 ns         1 TSV      -0.494900
      4 O1           2.0940    -5.9980     2.2550 os         1 TSV      -0.470100
      5 S1          -5.0740     4.3920     0.2990 s6         1 TSV       1.265800
      6 C2          -3.7010     0.9410     1.8620 cx         1 TSV      -0.069600
      7 N2          -2.2560     1.0840     1.9340 ns         1 TSV      -0.476900
      8 O2           2.3860    -5.4520     0.0190 o          1 TSV      -0.560000
      9 C3          -4.1890    -0.4520     2.2370 cx         1 TSV      -0.032500
     10 C4          -4.4520     1.8040     0.8340 c          1 TSV       0.682100
     11 N4           4.1260     2.1860    -2.8040 n          1 TSV      -0.120200
     12 O4          -4.5970     5.6310     0.9220 o          1 TSV      -0.526000
     13 C5          -5.2840    -1.1220     1.4760 c2         1 TSV      -0.192200
     14 N5           0.6590    -0.5160     0.7510 n          1 TSV      -0.390800
     15 O5           2.3140     0.7760    -3.1860 o          1 TSV      -0.471000
     16 C6           4.3160    -6.9670     1.8910 c3         1 TSV      -0.109100
     17 O6          -4.9120     4.1760    -1.1430 o          1 TSV      -0.526000
     18 C7           2.7330    -7.7460     3.7110 c3         1 TSV      -0.109100
     19 C8           2.1510    -8.2530     1.2970 c3         1 TSV      -0.109100
     20 O8           2.5130     1.8810    -1.1690 os         1 TSV      -0.429100
     21 C9           2.8330    -7.2420     2.2540 c3         1 TSV       0.225000
     22 O9          -5.0590     1.3580    -0.1280 o          1 TSV      -0.550100
     23 C10         -5.1120    -2.0570     0.5220 c2         1 TSV      -0.185200
     24 C11         -1.4240     0.8940     0.8450 c          1 TSV       0.584100
     25 C12          4.7730     2.0300    -4.0410 cc         1 TSV      -0.151400
     26 C13         -3.7910    -2.6310     0.0300 c3         1 TSV      -0.048200
     27 C14          8.0200     3.9250    -4.6670 ca         1 TSV      -0.097000
     28 C15          0.0560     0.7230     1.3110 c5         1 TSV       0.034700
     29 C16          6.9510     3.0540    -4.9750 ca         1 TSV      -0.082000
     30 C17          8.0790     4.5690    -3.4070 ca         1 TSV      -0.162000
     31 C18         -3.5250    -2.3170    -1.4590 c3         1 TSV      -0.074400
     32 C19         -2.2670    -2.9920    -2.0740 c3         1 TSV      -0.066400
     33 C20          1.9430    -5.2310     1.1340 c          1 TSV       0.653100
     34 C21          7.0700     4.3470    -2.4480 ca         1 TSV       0.206000
     35 C22         -0.9130    -2.5990    -1.4250 c3         1 TSV      -0.082400
     36 C23         -6.8710     4.2140     0.7120 cx         1 TSV      -0.446700
     37 C24          5.9630     2.8530    -4.0020 ca         1 TSV      -0.079000
     38 C25         -0.4340    -3.5650    -0.3100 c3         1 TSV      -0.090400
     39 C26          6.0180     3.4800    -2.7730 ca         1 TSV      -0.131000
     40 C27          0.9510     1.8290     0.6730 c5         1 TSV      -0.086400
     41 C28          0.7800    -3.0750     0.5320 c3         1 TSV       0.069700
     42 C29         -7.9360     4.8150    -0.1850 cx         1 TSV      -0.057900
     43 C30          1.3020     1.2250    -0.7120 c5         1 TSV       0.173300
     44 C31          4.8640     3.0720    -1.9980 cc         1 TSV      -0.129400
     45 C32         -7.7800     3.3100    -0.0980 cx         1 TSV      -0.057900
     46 C33          0.4350    -1.7810     1.3390 c          1 TSV       0.604100
     47 C34          1.6150    -0.2580    -0.3530 c5         1 TSV       0.085000
     48 C35          2.9170     1.5390    -2.4410 c          1 TSV       0.657100
     49 H1          -3.8880     0.7520     4.0910 hc         1 TSV       0.085200
     50 H1A         -5.4710     1.0780     3.2380 hc         1 TSV       0.085200
     51 HN1          0.9000    -4.0830     2.4340 hn         1 TSV       0.335500
     52 HN2         -1.8080     1.1210     2.8430 hn         1 TSV       0.324500
     53 H3          -3.4340    -1.1520     2.5880 hc         1 TSV       0.100700
     54 HN3         -3.8660     3.4310     1.9280 hn         1 TSV       0.347500
     55 H5          -6.2960    -0.8030     1.7360 ha         1 TSV       0.187000
     56 H6           4.9300    -7.8500     2.1040 hc         1 TSV       0.050256
     57 H6A          4.4410    -6.7350     0.8280 hc         1 TSV       0.050256
     58 H6B          4.7120    -6.1300     2.4790 hc         1 TSV       0.050256
     59 H7           3.1720    -7.0210     4.4060 hc         1 TSV       0.050256
     60 H7A          1.6860    -7.9030     3.9980 hc         1 TSV       0.050256
     61 H7B          3.2640    -8.6980     3.8320 hc         1 TSV       0.050256
     62 H8           2.5570    -9.2590     1.4520 hc         1 TSV       0.050256
     63 H8A          1.0700    -8.2930     1.4790 hc         1 TSV       0.050256
     64 H8B          2.3150    -7.9970     0.2450 hc         1 TSV       0.050256
     65 H10         -5.9870    -2.4820     0.0270 ha         1 TSV       0.169000
     66 H12          4.3220     1.3710    -4.7770 h4         1 TSV       0.242000
     67 H13         -2.9560    -2.2410     0.6220 hc         1 TSV       0.046700
     68 H13A        -3.7930    -3.7190     0.1720 hc         1 TSV       0.046700
     69 H14          8.8020     4.1000    -5.4030 ha         1 TSV       0.113000
     70 H15          0.1090     0.7510     2.4080 h1         1 TSV       0.083700
     71 H16          6.8960     2.5540    -5.9390 ha         1 TSV       0.118000
     72 H17          8.9040     5.2380    -3.1740 ha         1 TSV       0.127000
     73 H18         -4.3990    -2.6290    -2.0440 hc         1 TSV       0.048700
     74 H18A        -3.4450    -1.2300    -1.5820 hc         1 TSV       0.048700
     75 H19         -2.3860    -4.0820    -2.0570 hc         1 TSV       0.038700
     76 H19A        -2.2290    -2.7090    -3.1340 hc         1 TSV       0.038700
     77 H22         -0.1430    -2.5730    -2.2060 hc         1 TSV       0.051700
     78 H22A        -0.9980    -1.5770    -1.0440 hc         1 TSV       0.051700
     79 H23         -6.9920     4.2690     1.7910 h1         1 TSV       0.123700
     80 H25         -1.2600    -3.7810     0.3770 hc         1 TSV       0.056700
     81 H25A        -0.1780    -4.5220    -0.7800 hc         1 TSV       0.056700
     82 H27          0.4430     2.7970     0.5950 hc         1 TSV       0.078700
     83 H27A         1.8550     1.9850     1.2730 hc         1 TSV       0.078700
     84 H28          1.6240    -2.8620    -0.1350 h1         1 TSV       0.075700
     85 H29         -8.8100     5.2600     0.2860 hc         1 TSV       0.090700
     86 H29A        -7.6270     5.2990    -1.1100 hc         1 TSV       0.090700
     87 H30          0.4830     1.3330    -1.4370 h1         1 TSV       0.098700
     88 H31          4.4970     3.3020    -1.0020 h4         1 TSV       0.242000
     89 H32         -7.3710     2.7970    -0.9650 hc         1 TSV       0.090700
     90 H32A        -8.5490     2.7530     0.4330 hc         1 TSV       0.090700
     91 H34          2.6500    -0.3820    -0.0070 h1         1 TSV       0.075700
     92 H34A         1.4500    -0.9160    -1.2150 h1         1 TSV       0.075700
     93 O3          -0.0920    -1.8510     2.4450 o          1 TSV      -0.619100
     94 O7          -1.8350     0.8480    -0.3050 o          1 TSV      -0.564100
     95 N3          -4.3750     3.1270     1.1180 ns         1 TSV      -0.576300
@<TRIPOS>BOND
     1     1     6 1   
     2     1     9 1   
     3     1    49 1   
     4     1    50 1   
     5     2    34 1   
     6     3    33 1   
     7     3    41 1   
     8     3    51 1   
     9     4    21 1   
    10     4    33 1   
    11     5    12 2   
    12     5    17 2   
    13     5    36 1   
    14     5    95 1   
    15     6     7 1   
    16     6     9 1   
    17     6    10 1   
    18     7    24 1   
    19     7    52 1   
    20     8    33 2   
    21     9    13 1   
    22     9    53 1   
    23    10    22 2   
    24    10    95 1   
    25    11    25 1   
    26    11    44 1   
    27    11    48 1   
    28    13    23 2   
    29    13    55 1   
    30    14    28 1   
    31    14    46 1   
    32    14    47 1   
    33    15    48 2   
    34    16    21 1   
    35    16    56 1   
    36    16    57 1   
    37    16    58 1   
    38    18    21 1   
    39    18    59 1   
    40    18    60 1   
    41    18    61 1   
    42    19    21 1   
    43    19    62 1   
    44    19    63 1   
    45    19    64 1   
    46    20    43 1   
    47    20    48 1   
    48    23    26 1   
    49    23    65 1   
    50    24    28 1   
    51    24    94 2   
    52    25    37 2   
    53    25    66 1   
    54    26    31 1   
    55    26    67 1   
    56    26    68 1   
    57    27    29 ar  
    58    27    30 ar  
    59    27    69 1   
    60    28    40 1   
    61    28    70 1   
    62    29    37 ar  
    63    29    71 1   
    64    30    34 ar  
    65    30    72 1   
    66    31    32 1   
    67    31    73 1   
    68    31    74 1   
    69    32    35 1   
    70    32    75 1   
    71    32    76 1   
    72    34    39 ar  
    73    35    38 1   
    74    35    77 1   
    75    35    78 1   
    76    36    42 1   
    77    36    45 1   
    78    36    79 1   
    79    37    39 ar  
    80    38    41 1   
    81    38    80 1   
    82    38    81 1   
    83    39    44 2   
    84    40    43 1   
    85    40    82 1   
    86    40    83 1   
    87    41    46 1   
    88    41    84 1   
    89    42    45 1   
    90    42    85 1   
    91    42    86 1   
    92    43    47 1   
    93    43    87 1   
    94    44    88 1   
    95    45    89 1   
    96    45    90 1   
    97    46    93 2   
    98    47    91 1   
    99    47    92 1   
   100    54    95 1   
@<TRIPOS>SUBSTRUCTURE
     1 TSV         1 TEMP              0 ****  ****    0 ROOT
