@<TRIPOS>MOLECULE
TSV
   95   100     1     0     0
SMALL
abcg2


@<TRIPOS>ATOM
      1 C1          -4.4420    -0.3370     2.9100 cx         1 TSV      -0.099400
      2 F1           6.3880     4.8190    -1.1320 f          1 TSV      -0.180000
      3 N1           0.6520    -4.8640     0.5090 ns         1 TSV      -0.494900
      4 O1           1.8530    -5.8570     2.0710 os         1 TSV      -0.470100
      5 S1          -3.7960     4.0950     0.4050 s6         1 TSV       1.265800
      6 C2          -3.6530     0.3350     1.8180 cx         1 TSV      -0.069600
      7 N2          -2.2330     0.3310     1.9260 ns         1 TSV      -0.476900
      8 O2           2.4300    -3.7770     1.3670 o          1 TSV      -0.560000
      9 C3          -4.3000    -1.0340     1.6040 cx         1 TSV      -0.032500
     10 C4          -4.2710     1.5460     1.2020 c          1 TSV       0.682100
     11 N4           3.7560     1.9330    -2.8830 n          1 TSV      -0.120200
     12 O4          -2.5270     4.8010     0.3950 o          1 TSV      -0.526000
     13 C5          -5.4330    -1.3040     0.6970 c2         1 TSV      -0.192200
     14 N5           0.4270    -1.3490     0.2890 n          1 TSV      -0.390800
     15 O5           2.1230     0.4320    -3.4210 o          1 TSV      -0.471000
     16 C6           2.7720    -4.9410     4.1560 c3         1 TSV      -0.109100
     17 O6          -4.5060     3.8820    -0.8410 o          1 TSV      -0.526000
     18 C7           2.6170    -7.3790     3.6610 c3         1 TSV      -0.109100
     19 C8           4.2780    -5.9870     2.4230 c3         1 TSV      -0.109100
     20 O8           2.3280     1.2070    -1.3240 os         1 TSV      -0.429100
     21 C9           2.8980    -6.0030     3.0700 c3         1 TSV       0.225000
     22 O9          -5.4330     1.6090     0.8760 o          1 TSV      -0.550100
     23 C10         -5.3820    -2.1460    -0.3370 c2         1 TSV      -0.185200
     24 C11         -1.4910     0.0250     0.8360 c          1 TSV       0.584100
     25 C12          4.3210     1.9860    -4.1330 cc         1 TSV      -0.151400
     26 C13         -4.1940    -2.9100    -0.8330 c3         1 TSV      -0.048200
     27 C14          7.1990     4.2950    -4.6550 ca         1 TSV      -0.097000
     28 C15         -0.0040    -0.2070     1.0780 c5         1 TSV       0.034700
     29 C16          6.2840     3.3660    -5.0410 ca         1 TSV      -0.082000
     30 C17          7.2500     4.8060    -3.3160 ca         1 TSV      -0.162000
     31 C18         -3.8840    -2.5960    -2.2970 c3         1 TSV      -0.074400
     32 C19         -2.6970    -3.3690    -2.8710 c3         1 TSV      -0.066400
     33 C20          1.7140    -4.7590     1.3360 c          1 TSV       0.653100
     34 C21          6.3690     4.3620    -2.3930 ca         1 TSV       0.206000
     35 C22         -1.3610    -3.0780    -2.1710 c3         1 TSV      -0.082400
     36 C23         -4.8640     4.8490     1.5700 cx         1 TSV      -0.446700
     37 C24          5.3500     2.8940    -4.0750 ca         1 TSV      -0.079000
     38 C25         -0.9590    -4.1390    -1.1500 c3         1 TSV      -0.090400
     39 C26          5.3890     3.3960    -2.7260 ca         1 TSV      -0.131000
     40 C27          0.8450     0.9460     0.5360 c5         1 TSV      -0.086400
     41 C28          0.2680    -3.7500    -0.3210 c3         1 TSV       0.069700
     42 C29         -5.7240     5.9820     1.0850 cx         1 TSV      -0.057900
     43 C30          1.1580     0.5120    -0.8850 c5         1 TSV       0.173300
     44 C31          4.3910     2.7830    -2.0110 cc         1 TSV      -0.129400
     45 C32         -6.3440     4.6810     1.4560 cx         1 TSV      -0.057900
     46 C33         -0.0900    -2.5570     0.5670 c          1 TSV       0.604100
     47 C34          1.3570    -0.9970    -0.7700 c5         1 TSV       0.085000
     48 C35          2.6590     1.1120    -2.5920 c          1 TSV       0.657100
     49 H1          -3.8850    -0.7080     3.7610 hc         1 TSV       0.085200
     50 H1A         -5.3980     0.1080     3.1550 hc         1 TSV       0.085200
     51 HN1          0.0210    -5.6440     0.6040 hn         1 TSV       0.335500
     52 HN2         -1.8150     0.2830     2.8440 hn         1 TSV       0.324500
     53 H3          -3.5340    -1.8000     1.6030 hc         1 TSV       0.100700
     54 HN3         -2.4810     2.5450     1.4820 hn         1 TSV       0.347500
     55 H5          -6.3730    -0.8150     0.9180 ha         1 TSV       0.187000
     56 H6           3.4530    -5.1850     4.9710 hc         1 TSV       0.050256
     57 H6A          3.0240    -3.9460     3.7970 hc         1 TSV       0.050256
     58 H6B          1.7610    -4.9200     4.5670 hc         1 TSV       0.050256
     59 H7           1.6260    -7.4200     4.1150 hc         1 TSV       0.050256
     60 H7A          2.6830    -8.1600     2.9010 hc         1 TSV       0.050256
     61 H7B          3.3490    -7.6050     4.4360 hc         1 TSV       0.050256
     62 H8           5.0260    -6.2500     3.1730 hc         1 TSV       0.050256
     63 H8A          4.3450    -6.7210     1.6180 hc         1 TSV       0.050256
     64 H8B          4.5380    -5.0080     2.0260 hc         1 TSV       0.050256
     65 H10         -6.3000    -2.2970    -0.9000 ha         1 TSV       0.169000
     66 H12          3.9530     1.3850    -4.9460 h4         1 TSV       0.242000
     67 H13         -3.3150    -2.6970    -0.2250 hc         1 TSV       0.046700
     68 H13A        -4.3900    -3.9840    -0.7380 hc         1 TSV       0.046700
     69 H14          7.9190     4.6730    -5.3670 ha         1 TSV       0.113000
     70 H15          0.1910    -0.3680     2.1400 h1         1 TSV       0.083700
     71 H16          6.2620     2.9930    -6.0560 ha         1 TSV       0.118000
     72 H17          7.9960     5.5440    -3.0520 ha         1 TSV       0.127000
     73 H18         -4.7710    -2.8030    -2.9040 hc         1 TSV       0.048700
     74 H18A        -3.6900    -1.5230    -2.3920 hc         1 TSV       0.048700
     75 H19         -2.9080    -4.4440    -2.8390 hc         1 TSV       0.038700
     76 H19A        -2.6120    -3.1160    -3.9300 hc         1 TSV       0.038700
     77 H22         -0.5640    -3.0030    -2.9160 hc         1 TSV       0.051700
     78 H22A        -1.4220    -2.0950    -1.6970 hc         1 TSV       0.051700
     79 H23         -4.4030     4.9220     2.5480 h1         1 TSV       0.123700
     80 H25         -1.7840    -4.3570    -0.4670 hc         1 TSV       0.056700
     81 H25A        -0.7310    -5.0730    -1.6720 hc         1 TSV       0.056700
     82 H27          0.3460     1.9130     0.5900 hc         1 TSV       0.078700
     83 H27A         1.7680     1.0090     1.1140 hc         1 TSV       0.078700
     84 H28          1.0930    -3.5150    -0.9980 h1         1 TSV       0.075700
     85 H29         -5.8120     6.8230     1.7590 hc         1 TSV       0.090700
     86 H29A        -5.6880     6.2450     0.0360 hc         1 TSV       0.090700
     87 H30          0.3320     0.7390    -1.5600 h1         1 TSV       0.098700
     88 H31          4.0900     2.8860    -0.9830 h4         1 TSV       0.242000
     89 H32         -6.7250     4.0590     0.6590 hc         1 TSV       0.090700
     90 H32A        -6.8820     4.6010     2.3910 hc         1 TSV       0.090700
     91 H34          2.3870    -1.2330    -0.4860 h1         1 TSV       0.075700
     92 H34A         1.1270    -1.5090    -1.7020 h1         1 TSV       0.075700
     93 O3          -0.8730    -2.7010     1.4950 o          1 TSV      -0.619100
     94 O7          -1.9700    -0.0170    -0.2800 o          1 TSV      -0.564100
     95 N3          -3.4090     2.6090     1.0800 ns         1 TSV      -0.576300
@<TRIPOS>BOND
     1     1     6 1   
     2     1     9 1   
     3     1    49 1   
     4     1    50 1   
     5     2    34 1   
     6     3    33 1   
     7     3    41 1   
     8     3    51 1   
     9     4    21 1   
    10     4    33 1   
    11     5    12 2   
    12     5    17 2   
    13     5    36 1   
    14     5    95 1   
    15     6     7 1   
    16     6     9 1   
    17     6    10 1   
    18     7    24 1   
    19     7    52 1   
    20     8    33 2   
    21     9    13 1   
    22     9    53 1   
    23    10    22 2   
    24    10    95 1   
    25    11    25 1   
    26    11    44 1   
    27    11    48 1   
    28    13    23 2   
    29    13    55 1   
    30    14    28 1   
    31    14    46 1   
    32    14    47 1   
    33    15    48 2   
    34    16    21 1   
    35    16    56 1   
    36    16    57 1   
    37    16    58 1   
    38    18    21 1   
    39    18    59 1   
    40    18    60 1   
    41    18    61 1   
    42    19    21 1   
    43    19    62 1   
    44    19    63 1   
    45    19    64 1   
    46    20    43 1   
    47    20    48 1   
    48    23    26 1   
    49    23    65 1   
    50    24    28 1   
    51    24    94 2   
    52    25    37 2   
    53    25    66 1   
    54    26    31 1   
    55    26    67 1   
    56    26    68 1   
    57    27    29 ar  
    58    27    30 ar  
    59    27    69 1   
    60    28    40 1   
    61    28    70 1   
    62    29    37 ar  
    63    29    71 1   
    64    30    34 ar  
    65    30    72 1   
    66    31    32 1   
    67    31    73 1   
    68    31    74 1   
    69    32    35 1   
    70    32    75 1   
    71    32    76 1   
    72    34    39 ar  
    73    35    38 1   
    74    35    77 1   
    75    35    78 1   
    76    36    42 1   
    77    36    45 1   
    78    36    79 1   
    79    37    39 ar  
    80    38    41 1   
    81    38    80 1   
    82    38    81 1   
    83    39    44 2   
    84    40    43 1   
    85    40    82 1   
    86    40    83 1   
    87    41    46 1   
    88    41    84 1   
    89    42    45 1   
    90    42    85 1   
    91    42    86 1   
    92    43    47 1   
    93    43    87 1   
    94    44    88 1   
    95    45    89 1   
    96    45    90 1   
    97    46    93 2   
    98    47    91 1   
    99    47    92 1   
   100    54    95 1   
@<TRIPOS>SUBSTRUCTURE
     1 TSV         1 TEMP              0 ****  ****    0 ROOT
