@<TRIPOS>MOLECULE
TSW
   45    48     1     0     0
SMALL
No Charge or Current Charge


@<TRIPOS>ATOM
      1 N1          -6.0280     1.0260   -12.6970 ns         1 TSW      -0.485400
      2 C2         -10.6880     0.9920   -17.3290 c3         1 TSW      -0.046100
      3 N2          -5.1330    -0.2030   -10.8560 nc         1 TSW      -0.664000
      4 N3          -6.5350     1.4130   -15.4590 nc         1 TSW      -0.770700
      5 C4         -12.7420    -0.0490   -18.4070 ca         1 TSW      -0.102000
      6 N5          -5.2080    -0.2280   -18.5600 nb         1 TSW      -0.557000
      7 C6         -14.8840    -0.1180   -17.2500 ca         1 TSW      -0.105000
      8 C7         -14.3070     0.5350   -16.1470 ca         1 TSW      -0.108500
      9 C8         -12.9490     0.8960   -16.1750 ca         1 TSW      -0.102000
     10 C9          -7.7990     1.0290   -15.6260 cd         1 TSW       0.551800
     11 C10         -7.9160     2.5210   -13.1240 c3         1 TSW      -0.047400
     12 O1          -7.5220     1.4350   -11.0100 o          1 TSW      -0.522100
     13 C11         -7.1470     1.6090   -12.1600 c          1 TSW       0.610100
     14 C12         -5.1230     0.1810   -12.1220 cd         1 TSW       0.592300
     15 S1          -3.8140    -0.4720   -13.1030 ss         1 TSW      -0.096400
     16 C14         -3.2650    -1.3200   -11.6700 cd         1 TSW      -0.275000
     17 C13         -4.0840    -1.0500   -10.6040 cc         1 TSW       0.306900
     18 S           -8.9360     1.5770   -14.3680 ss         1 TSW      -0.190200
     19 C15         -5.6590     0.9770   -16.4710 ca         1 TSW       0.291000
     20 C18         -6.0750     0.1920   -17.5860 ca         1 TSW       0.185500
     21 C17         -3.9160     0.1370   -18.4180 ca         1 TSW       0.262900
     22 C16         -3.4930     0.9090   -17.3250 ca         1 TSW       0.076900
     23 N4          -4.3520     1.3190   -16.3700 nb         1 TSW      -0.107000
     24 C           -7.5250    -0.1870   -17.6890 c          1 TSW       0.474500
     25 O           -7.9630    -0.8500   -18.6260 o          1 TSW      -0.474000
     26 N           -8.3530     0.2670   -16.6530 n          1 TSW      -0.329300
     27 C1          -9.8010    -0.1000   -16.6950 c3         1 TSW       0.087000
     28 C3         -12.1600     0.6080   -17.3060 ca         1 TSW      -0.092300
     29 C5         -14.1010    -0.4100   -18.3800 ca         1 TSW      -0.108500
     30 H1          -5.8960     1.2370   -13.6810 hn         1 TSW       0.370500
     31 H2         -10.5410     1.9410   -16.8000 hc         1 TSW       0.061700
     32 H3         -10.3560     1.1660   -18.3600 hc         1 TSW       0.061700
     33 H5         -15.9350    -0.3970   -17.2290 ha         1 TSW       0.115000
     34 H6         -14.9120     0.7610   -15.2720 ha         1 TSW       0.115500
     35 H7         -12.5090     1.4000   -15.3160 ha         1 TSW       0.115000
     36 H8          -8.5880     3.1380   -12.5170 h1         1 TSW       0.112200
     37 H9          -7.2110     3.1880   -13.6340 h1         1 TSW       0.112200
     38 H11         -2.3890    -1.9550   -11.6930 h4         1 TSW       0.160000
     39 H13         -3.9720    -1.4430    -9.6020 h4         1 TSW       0.043100
     40 H14         -3.2160    -0.1900   -19.1860 h4         1 TSW       0.043100
     41 H15         -2.4520     1.2030   -17.2100 h4         1 TSW       0.040100
     42 H16        -10.1650    -0.3290   -15.6850 h1         1 TSW       0.081200
     43 H17         -9.9370    -1.0300   -17.2620 h1         1 TSW       0.081200
     44 H18        -14.5460    -0.9170   -19.2330 ha         1 TSW       0.115500
     45 H4         -12.1430    -0.2820   -19.2850 ha         1 TSW       0.115000
@<TRIPOS>BOND
     1     1    13 1   
     2     1    14 1   
     3     1    30 1   
     4     2    27 1   
     5     2    28 1   
     6     2    31 1   
     7     2    32 1   
     8     3    14 2   
     9     3    17 1   
    10     4    10 2   
    11     4    19 1   
    12     5    28 ar  
    13     5    29 ar  
    14     5    45 1   
    15     6    20 ar  
    16     6    21 ar  
    17     7     8 ar  
    18     7    29 ar  
    19     7    33 1   
    20     8     9 ar  
    21     8    34 1   
    22     9    28 ar  
    23     9    35 1   
    24    10    18 1   
    25    10    26 1   
    26    11    13 1   
    27    11    18 1   
    28    11    36 1   
    29    11    37 1   
    30    12    13 2   
    31    14    15 1   
    32    15    16 1   
    33    16    17 2   
    34    16    38 1   
    35    17    39 1   
    36    19    20 ar  
    37    19    23 ar  
    38    20    24 1   
    39    21    22 ar  
    40    21    40 1   
    41    22    23 ar  
    42    22    41 1   
    43    24    25 2   
    44    24    26 1   
    45    26    27 1   
    46    27    42 1   
    47    27    43 1   
    48    29    44 1   
@<TRIPOS>SUBSTRUCTURE
     1 TSW         1 TEMP              0 ****  ****    0 ROOT
