@<TRIPOS>MOLECULE
TSW
   45    48     1     0     0
SMALL
abcg2


@<TRIPOS>ATOM
      1 N1          -5.9370     1.0330   -12.6430 ns         1 TSW      -0.485400
      2 C2         -10.6610     1.0140   -17.2890 c3         1 TSW      -0.046100
      3 N2          -4.8440    -0.0620   -10.8100 nc         1 TSW      -0.664000
      4 N3          -6.6300     1.2240   -15.3900 nc         1 TSW      -0.770700
      5 C4         -12.6270    -0.0540   -18.4490 ca         1 TSW      -0.102000
      6 N5          -5.4280    -0.1860   -18.5300 nb         1 TSW      -0.557000
      7 C6         -14.8320    -0.0410   -17.4760 ca         1 TSW      -0.105000
      8 C7         -14.3400     0.6760   -16.3900 ca         1 TSW      -0.108500
      9 C8         -12.9950     1.0260   -16.3360 ca         1 TSW      -0.102000
     10 C9          -7.8810     0.8870   -15.4630 cd         1 TSW       0.551800
     11 C10         -7.9260     2.3210   -13.0670 c3         1 TSW      -0.047400
     12 O1          -7.4350     1.3540   -10.9260 o          1 TSW      -0.522100
     13 C11         -7.0870     1.5170   -12.0810 c          1 TSW       0.610100
     14 C12         -4.9720     0.2300   -12.0700 cd         1 TSW       0.592300
     15 S1          -3.7570    -0.4850   -13.1120 ss         1 TSW      -0.096400
     16 C14         -3.0500    -1.2210   -11.7190 cd         1 TSW      -0.275000
     17 C13         -3.7580    -0.8850   -10.6100 cc         1 TSW       0.306900
     18 S           -8.9800     1.2960   -14.1440 ss         1 TSW      -0.190200
     19 C15         -5.7940     0.8760   -16.4120 ca         1 TSW       0.291000
     20 C18         -6.2500     0.1730   -17.5370 ca         1 TSW       0.185500
     21 C17         -4.1570     0.1520   -18.4000 ca         1 TSW       0.262900
     22 C16         -3.6970     0.8580   -17.2740 ca         1 TSW       0.076900
     23 N4          -4.4980     1.2200   -16.2910 nb         1 TSW      -0.107000
     24 C           -7.6700    -0.1820   -17.6310 c          1 TSW       0.474500
     25 O           -8.1830    -0.7610   -18.5700 o          1 TSW      -0.474000
     26 N           -8.4380     0.2080   -16.5170 n          1 TSW      -0.329300
     27 C1          -9.8770    -0.0950   -16.5780 c3         1 TSW       0.087000
     28 C3         -12.1240     0.6670   -17.3650 ca         1 TSW      -0.092300
     29 C5         -13.9710    -0.4060   -18.5070 ca         1 TSW      -0.108500
     30 H1          -5.8730     1.1930   -13.6530 hn         1 TSW       0.370500
     31 H2         -10.5220     1.9520   -16.7500 hc         1 TSW       0.061700
     32 H3         -10.2500     1.1390   -18.2910 hc         1 TSW       0.061700
     33 H5         -15.8800    -0.3110   -17.5210 ha         1 TSW       0.115000
     34 H6         -15.0050     0.9670   -15.5850 ha         1 TSW       0.115500
     35 H7         -12.6160     1.5880   -15.4900 ha         1 TSW       0.115000
     36 H8          -8.6370     2.9160   -12.4990 h1         1 TSW       0.112200
     37 H9          -7.3200     2.9700   -13.6950 h1         1 TSW       0.112200
     38 H11         -2.1710    -1.8390   -11.8000 h4         1 TSW       0.160000
     39 H13         -3.5250    -1.2120    -9.6070 h4         1 TSW       0.043100
     40 H14         -3.4730    -0.1310   -19.1900 h4         1 TSW       0.043100
     41 H15         -2.6490     1.1230   -17.1890 h4         1 TSW       0.040100
     42 H16        -10.2430    -0.2530   -15.5660 h1         1 TSW       0.081200
     43 H17         -9.9780    -1.0340   -17.1150 h1         1 TSW       0.081200
     44 H18        -14.3470    -0.9610   -19.3570 ha         1 TSW       0.115500
     45 H4         -11.9590    -0.3370   -19.2550 ha         1 TSW       0.115000
@<TRIPOS>BOND
     1     1    13 1   
     2     1    14 1   
     3     1    30 1   
     4     2    27 1   
     5     2    28 1   
     6     2    31 1   
     7     2    32 1   
     8     3    14 2   
     9     3    17 1   
    10     4    10 2   
    11     4    19 1   
    12     5    28 ar  
    13     5    29 ar  
    14     5    45 1   
    15     6    20 ar  
    16     6    21 ar  
    17     7     8 ar  
    18     7    29 ar  
    19     7    33 1   
    20     8     9 ar  
    21     8    34 1   
    22     9    28 ar  
    23     9    35 1   
    24    10    18 1   
    25    10    26 1   
    26    11    13 1   
    27    11    18 1   
    28    11    36 1   
    29    11    37 1   
    30    12    13 2   
    31    14    15 1   
    32    15    16 1   
    33    16    17 2   
    34    16    38 1   
    35    17    39 1   
    36    19    20 ar  
    37    19    23 ar  
    38    20    24 1   
    39    21    22 ar  
    40    21    40 1   
    41    22    23 ar  
    42    22    41 1   
    43    24    25 2   
    44    24    26 1   
    45    26    27 1   
    46    27    42 1   
    47    27    43 1   
    48    29    44 1   
@<TRIPOS>SUBSTRUCTURE
     1 TSW         1 TEMP              0 ****  ****    0 ROOT
