@<TRIPOS>MOLECULE
TSX
   54    56     1     0     0
SMALL
No Charge or Current Charge


@<TRIPOS>ATOM
      1 O13          1.0410    -0.6540    -4.9600 o          1 TSX      -0.557000
      2 C5           0.6920    -0.5480    -3.7900 c          1 TSX       0.622000
      3 N4          -0.6290    -0.8450    -3.3980 n          1 TSX      -0.372400
      4 C31         -1.5770    -1.3150    -4.4380 c3         1 TSX       0.132200
      5 C32         -1.4270    -2.7990    -4.7050 c2         1 TSX      -0.243200
      6 C33         -1.8940    -3.7830    -3.9190 c2         1 TSX      -0.293000
      7 N6           1.6010    -0.1160    -2.8040 n          1 TSX      -0.359300
      8 C41          3.0010     0.1950    -3.1880 c3         1 TSX       0.115000
      9 C42          3.2240     1.6970    -3.4650 c3         1 TSX      -0.098400
     10 C43          4.6790     2.0280    -3.8620 c3         1 TSX      -0.072400
     11 C44          4.8990     3.5270    -4.1470 c3         1 TSX      -0.088100
     12 C7           1.1840    -0.0040    -1.5000 cc         1 TSX       0.439900
     13 N12          1.9480     0.3930    -0.4440 nc         1 TSX      -0.697000
     14 C8          -0.0800    -0.2910    -1.1300 cd         1 TSX      -0.353600
     15 C3          -1.0950    -0.7420    -2.0800 c          1 TSX       0.635600
     16 O12         -2.2400    -1.0000    -1.7350 o          1 TSX      -0.537000
     17 N9          -0.1260    -0.0630     0.2410 na         1 TSX      -0.249500
     18 C11          1.1400     0.3520     0.6070 cd         1 TSX       0.461800
     19 C14          1.5680     0.7210     2.0040 c3         1 TSX      -0.053400
     20 C21          0.5420     0.3860     3.0830 ca         1 TSX      -0.111300
     21 C22          0.5180    -0.8930     3.6670 ca         1 TSX      -0.063000
     22 C23         -0.4370    -1.2110     4.6490 ca         1 TSX      -0.152000
     23 C24         -1.3860    -0.2500     5.0620 ca         1 TSX      -0.010000
     24 C25         -1.3590     1.0260     4.4690 ca         1 TSX      -0.152000
     25 C26         -0.4040     1.3450     3.4890 ca         1 TSX      -0.063000
     26 N           -2.3830    -0.4990     6.0450 ns         1 TSX      -0.148000
     27 C           -2.6510    -1.6000     6.8500 c          1 TSX       0.609100
     28 O           -1.9990    -2.6370     6.8560 o          1 TSX      -0.579100
     29 C4          -3.8610    -1.4190     7.7640 c3         1 TSX      -0.182100
     30 H311        -2.6120    -1.0980    -4.1400 h1         1 TSX       0.074700
     31 H312        -1.4100    -0.7530    -5.3680 h1         1 TSX       0.074700
     32 H32         -0.8820    -3.0320    -5.6240 ha         1 TSX       0.181000
     33 H331        -1.7470    -4.8350    -4.1710 ha         1 TSX       0.164500
     34 H332        -2.4380    -3.5730    -2.9970 ha         1 TSX       0.164500
     35 H411         3.2910    -0.3850    -4.0730 h1         1 TSX       0.071700
     36 H412         3.6720    -0.1220    -2.3780 h1         1 TSX       0.071700
     37 H421         2.9520     2.2730    -2.5710 hc         1 TSX       0.052200
     38 H422         2.5480     2.0150    -4.2690 hc         1 TSX       0.052200
     39 H431         4.9530     1.4520    -4.7550 hc         1 TSX       0.040200
     40 H432         5.3560     1.7150    -3.0580 hc         1 TSX       0.040200
     41 H441         5.9430     3.7130    -4.4260 hc         1 TSX       0.032700
     42 H442         4.2590     3.8640    -4.9710 hc         1 TSX       0.032700
     43 H443         4.6680     4.1280    -3.2590 hc         1 TSX       0.032700
     44 H91         -0.9140    -0.1750     0.8690 hn         1 TSX       0.373000
     45 H141         2.5160     0.2170     2.2300 hc         1 TSX       0.064200
     46 H142         1.7970     1.7930     2.0300 hc         1 TSX       0.064200
     47 H22          1.2390    -1.6470     3.3580 ha         1 TSX       0.114000
     48 H23         -0.4230    -2.2110     5.0700 ha         1 TSX       0.130000
     49 H25         -2.0830     1.7810     4.7700 ha         1 TSX       0.130000
     50 H26         -0.4040     2.3380     3.0430 ha         1 TSX       0.114000
     51 HN1         -3.0210     0.2740     6.1820 hn         1 TSX       0.149000
     52 H41         -4.0490    -2.2960     8.3930 hc         1 TSX       0.064033
     53 H42         -3.7240    -0.5110     8.3630 hc         1 TSX       0.064033
     54 H43         -4.7340    -1.1650     7.1520 hc         1 TSX       0.064033
@<TRIPOS>BOND
     1     1     2 2   
     2     2     3 1   
     3     2     7 1   
     4     3     4 1   
     5     3    15 1   
     6     4     5 1   
     7     4    30 1   
     8     4    31 1   
     9     5     6 2   
    10     5    32 1   
    11     6    33 1   
    12     6    34 1   
    13     7     8 1   
    14     7    12 1   
    15     8     9 1   
    16     8    35 1   
    17     8    36 1   
    18     9    10 1   
    19     9    37 1   
    20     9    38 1   
    21    10    11 1   
    22    10    39 1   
    23    10    40 1   
    24    11    41 1   
    25    11    42 1   
    26    11    43 1   
    27    12    13 1   
    28    12    14 2   
    29    13    18 2   
    30    14    15 1   
    31    14    17 1   
    32    15    16 2   
    33    17    18 1   
    34    17    44 1   
    35    18    19 1   
    36    19    20 1   
    37    19    45 1   
    38    19    46 1   
    39    20    21 ar  
    40    20    25 ar  
    41    21    22 ar  
    42    21    47 1   
    43    22    23 ar  
    44    22    48 1   
    45    23    24 ar  
    46    23    26 1   
    47    24    25 ar  
    48    24    49 1   
    49    25    50 1   
    50    26    27 1   
    51    26    51 1   
    52    27    28 2   
    53    27    29 1   
    54    29    52 1   
    55    29    53 1   
    56    29    54 1   
@<TRIPOS>SUBSTRUCTURE
     1 TSX         1 TEMP              0 ****  ****    0 ROOT
