@<TRIPOS>MOLECULE
TSX
   54    56     1     0     0
SMALL
abcg2


@<TRIPOS>ATOM
      1 O13          1.0940    -1.3990    -4.2960 o          1 TSX      -0.557000
      2 C5           0.3750    -0.6940    -3.6120 c          1 TSX       0.622000
      3 N4          -0.8100    -0.1690    -4.1250 n          1 TSX      -0.372400
      4 C31         -1.1370    -0.5270    -5.5080 c3         1 TSX       0.132200
      5 C32         -1.8780    -1.8260    -5.5860 c2         1 TSX      -0.243200
      6 C33         -3.1090    -1.9420    -6.0660 c2         1 TSX      -0.293000
      7 N6           0.6910    -0.3890    -2.3120 n          1 TSX      -0.359300
      8 C41          1.9340    -0.8730    -1.7200 c3         1 TSX       0.115000
      9 C42          3.0720     0.1280    -1.8570 c3         1 TSX      -0.098400
     10 C43          4.3610    -0.3960    -1.2350 c3         1 TSX      -0.072400
     11 C44          5.4950     0.6160    -1.3120 c3         1 TSX      -0.088100
     12 C7          -0.1370     0.4250    -1.5950 cc         1 TSX       0.439900
     13 N12          0.0520     0.8450    -0.3320 nc         1 TSX      -0.697000
     14 C8          -1.3060     0.9060    -2.1180 cd         1 TSX      -0.353600
     15 C3          -1.7410     0.6210    -3.4380 c          1 TSX       0.635600
     16 O12         -2.7750     1.0030    -3.9560 o          1 TSX      -0.537000
     17 N9          -1.8520     1.6570    -1.1060 na         1 TSX      -0.249500
     18 C11         -1.0070     1.5960    -0.0680 cd         1 TSX       0.461800
     19 C14         -1.2300     2.3320     1.2090 c3         1 TSX      -0.053400
     20 C21         -0.9560     1.4750     2.4150 ca         1 TSX      -0.111300
     21 C22          0.2880     1.4830     3.0280 ca         1 TSX      -0.063000
     22 C23          0.5700     0.6870     4.1300 ca         1 TSX      -0.152000
     23 C24         -0.4180    -0.1520     4.6460 ca         1 TSX      -0.010000
     24 C25         -1.6730    -0.1670     4.0320 ca         1 TSX      -0.152000
     25 C26         -1.9350     0.6330     2.9350 ca         1 TSX      -0.063000
     26 N           -0.2510    -0.9890     5.7530 ns         1 TSX      -0.148000
     27 C            0.8480    -1.1950     6.5250 c          1 TSX       0.609100
     28 O            1.9130    -0.6280     6.3570 o          1 TSX      -0.579100
     29 C4           0.6550    -2.2240     7.6110 c3         1 TSX      -0.182100
     30 H311        -1.7300     0.2790    -5.9340 h1         1 TSX       0.074700
     31 H312        -0.2090    -0.5800    -6.0730 h1         1 TSX       0.074700
     32 H32         -1.3490    -2.7060    -5.2360 ha         1 TSX       0.181000
     33 H331        -3.6030    -2.9030    -6.1270 ha         1 TSX       0.164500
     34 H332        -3.6660    -1.0840    -6.4230 ha         1 TSX       0.164500
     35 H411         2.1900    -1.8190    -2.1930 h1         1 TSX       0.071700
     36 H412         1.7320    -1.0780    -0.6690 h1         1 TSX       0.071700
     37 H421         2.7870     1.0670    -1.3740 hc         1 TSX       0.052200
     38 H422         3.2370     0.3510    -2.9150 hc         1 TSX       0.052200
     39 H431         4.6560    -1.3230    -1.7370 hc         1 TSX       0.040200
     40 H432         4.1790    -0.6600    -0.1890 hc         1 TSX       0.040200
     41 H441         6.4020     0.2340    -0.8430 hc         1 TSX       0.032700
     42 H442         5.7370     0.8630    -2.3470 hc         1 TSX       0.032700
     43 H443         5.2260     1.5440    -0.8050 hc         1 TSX       0.032700
     44 H91         -2.7180     2.1730    -1.1430 hn         1 TSX       0.373000
     45 H141        -0.5700     3.2040     1.2180 hc         1 TSX       0.064200
     46 H142        -2.2520     2.7160     1.2310 hc         1 TSX       0.064200
     47 H22          1.0670     2.1300     2.6440 ha         1 TSX       0.114000
     48 H23          1.5510     0.7300     4.5740 ha         1 TSX       0.130000
     49 H25         -2.4540    -0.8100     4.4200 ha         1 TSX       0.130000
     50 H26         -2.9200     0.6020     2.4850 ha         1 TSX       0.114000
     51 HN1         -1.0670    -1.5270     5.9990 hn         1 TSX       0.149000
     52 H41          1.1530    -1.8930     8.5200 hc         1 TSX       0.064033
     53 H42         -0.3900    -2.4290     7.8390 hc         1 TSX       0.064033
     54 H43          1.1230    -3.1590     7.3010 hc         1 TSX       0.064033
@<TRIPOS>BOND
     1     1     2 2   
     2     2     3 1   
     3     2     7 1   
     4     3     4 1   
     5     3    15 1   
     6     4     5 1   
     7     4    30 1   
     8     4    31 1   
     9     5     6 2   
    10     5    32 1   
    11     6    33 1   
    12     6    34 1   
    13     7     8 1   
    14     7    12 1   
    15     8     9 1   
    16     8    35 1   
    17     8    36 1   
    18     9    10 1   
    19     9    37 1   
    20     9    38 1   
    21    10    11 1   
    22    10    39 1   
    23    10    40 1   
    24    11    41 1   
    25    11    42 1   
    26    11    43 1   
    27    12    13 1   
    28    12    14 2   
    29    13    18 2   
    30    14    15 1   
    31    14    17 1   
    32    15    16 2   
    33    17    18 1   
    34    17    44 1   
    35    18    19 1   
    36    19    20 1   
    37    19    45 1   
    38    19    46 1   
    39    20    21 ar  
    40    20    25 ar  
    41    21    22 ar  
    42    21    47 1   
    43    22    23 ar  
    44    22    48 1   
    45    23    24 ar  
    46    23    26 1   
    47    24    25 ar  
    48    24    49 1   
    49    25    50 1   
    50    26    27 1   
    51    26    51 1   
    52    27    28 2   
    53    27    29 1   
    54    29    52 1   
    55    29    53 1   
    56    29    54 1   
@<TRIPOS>SUBSTRUCTURE
     1 TSX         1 TEMP              0 ****  ****    0 ROOT
