@<TRIPOS>MOLECULE
TSZ
   10     9     1     0     0
SMALL
bcc


@<TRIPOS>ATOM
      1 C           -0.0980    -0.2210     0.0220 cs         1 TSZ       0.640400
      2 N1           0.2240    -1.5050    -0.0890 nt         1 TSZ      -0.598000
      3 N2           0.9070     0.6510     0.1660 ns         1 TSZ      -0.428300
      4 N3           2.2230     0.2270     0.2010 n8         1 TSZ      -0.667800
      5 S           -1.6970     0.3250    -0.0110 s          1 TSZ      -0.695400
      6 HN11         1.1900    -1.7930    -0.0760 hn         1 TSZ       0.338500
      7 HN12        -0.4990    -2.1890    -0.2180 hn         1 TSZ       0.338500
      8 HN2          0.6740     1.6290     0.2580 hn         1 TSZ       0.349500
      9 HN31         2.7440     0.6690    -0.5450 hn         1 TSZ       0.360800
     10 HN32         2.6440     0.4940     1.0820 hn         1 TSZ       0.360800
@<TRIPOS>BOND
     1     1     2 1   
     2     1     3 1   
     3     1     5 2   
     4     2     6 1   
     5     2     7 1   
     6     3     4 1   
     7     3     8 1   
     8     4     9 1   
     9     4    10 1   
@<TRIPOS>SUBSTRUCTURE
     1 TSZ         1 TEMP              0 ****  ****    0 ROOT
