@<TRIPOS>MOLECULE
TSZ
   10     9     1     0     0
SMALL
No Charge or Current Charge


@<TRIPOS>ATOM
      1 C           -0.1810    -0.2210     0.0150 cs         1 TSZ       0.506400
      2 N1           0.1700    -1.5040    -0.1010 nt         1 TSZ      -0.531000
      3 N2           0.8990     0.6180     0.1670 ns         1 TSZ      -0.361300
      4 N3           2.3130     0.2350     0.2080 n8         1 TSZ      -0.778200
      5 S           -1.7660     0.2770    -0.0230 s          1 TSZ      -0.695400
      6 HN11         1.1520    -1.7370    -0.0690 hn         1 TSZ       0.338500
      7 HN12        -0.5290    -2.2200    -0.2180 hn         1 TSZ       0.338500
      8 HN2          0.6550     1.6080     0.2580 hn         1 TSZ       0.349500
      9 HN31         2.8470     0.7020    -0.5420 hn         1 TSZ       0.416000
     10 HN32         2.7530     0.5280     1.0950 hn         1 TSZ       0.416000
@<TRIPOS>BOND
     1     1     2 1   
     2     1     3 1   
     3     1     5 2   
     4     2     6 1   
     5     2     7 1   
     6     3     4 1   
     7     3     8 1   
     8     4     9 1   
     9     4    10 1   
@<TRIPOS>SUBSTRUCTURE
     1 TSZ         1 TEMP              0 ****  ****    0 ROOT
