@<TRIPOS>MOLECULE
TT0
  264   264     1     0     0
SMALL
No Charge or Current Charge


@<TRIPOS>ATOM
      1 C01        -15.3070     4.0010    13.3450 c3         1 TT0      -0.097100
      2 C02        -15.3900     3.1310    12.0630 c3         1 TT0      -0.057700
      3 C03        -16.0430     1.7430    12.3310 c3         1 TT0      -0.073900
      4 C04        -17.4690     1.7990    12.9310 c3         1 TT0      -0.074900
      5 C05        -18.1610     0.4120    13.0090 c3         1 TT0      -0.069400
      6 C06        -19.5730     0.4020    13.6700 c3         1 TT0      -0.061700
      7 C07        -19.4900     0.6930    15.1980 c3         1 TT0      -0.071400
      8 C08        -20.8060     0.6400    16.0160 c3         1 TT0      -0.071400
      9 C09        -21.6250     1.9600    16.0140 c3         1 TT0      -0.069400
     10 C10        -22.5670     2.1410    17.2340 c3         1 TT0      -0.058200
     11 C11        -23.2030     3.5620    17.2250 c3         1 TT0      -0.074400
     12 C12        -23.9270     3.9960    18.5250 c3         1 TT0      -0.074400
     13 C13        -22.9970     4.0680    19.7630 c3         1 TT0      -0.077900
     14 C14        -23.6050     4.7640    21.0130 c3         1 TT0      -0.065200
     15 C15        -22.5030     4.9330    22.0970 c3         1 TT0      -0.075900
     16 C16        -22.9080     5.6370    23.4160 c3         1 TT0      -0.070400
     17 C17        -23.4660     7.0840    23.2950 c3         1 TT0      -0.062200
     18 C18        -24.0120     7.6090    24.6540 c3         1 TT0      -0.068400
     19 C19        -22.9560     7.8320    25.7670 c3         1 TT0      -0.078900
     20 C20        -23.5930     8.1830    27.1310 c3         1 TT0      -0.069900
     21 C21        -22.5750     8.3280    28.2970 c3         1 TT0      -0.064200
     22 C22        -23.2540     8.1790    29.6870 c3         1 TT0      -0.071900
     23 C23        -24.3720     9.2050    29.9990 c3         1 TT0      -0.068900
     24 C24        -24.9710     9.0860    31.4240 c3         1 TT0      -0.071400
     25 C25        -25.5920     7.7130    31.8280 c3         1 TT0      -0.059200
     26 C26        -26.0740     7.7890    33.3070 c3         1 TT0      -0.077900
     27 C27        -26.6590     6.4940    33.9340 c3         1 TT0      -0.069900
     28 C28        -28.1960     6.3230    33.7960 c3         1 TT0      -0.078900
     29 C29        -28.8380     5.3710    34.8470 c3         1 TT0      -0.049200
     30 C30        -30.3850     5.3430    34.6890 c3         1 TT0      -0.097900
     31 C31        -31.1630     4.7910    35.9070 c3         1 TT0       0.160600
     32 C33        -31.8040     5.4940    38.1670 c3         1 TT0       0.137600
     33 C34        -31.2280     4.3140    39.0100 c3         1 TT0       0.146800
     34 C35        -32.1950     3.8770    40.1530 c3         1 TT0       0.163600
     35 C38        -28.7840     4.2800    38.9210 c3         1 TT0       0.162100
     36 C39        -27.5770     5.0440    39.5130 c3         1 TT0      -0.095400
     37 C40        -26.2240     4.2790    39.4720 c3         1 TT0      -0.057700
     38 C41        -25.1110     5.1330    40.1270 c3         1 TT0      -0.097100
     39 C42        -25.8360     3.7960    38.0440 c3         1 TT0      -0.073900
     40 C43        -24.5480     2.9240    37.9980 c3         1 TT0      -0.074900
     41 C44        -24.3080     2.1810    36.6570 c3         1 TT0      -0.069400
     42 C45        -23.4120     2.8910    35.5970 c3         1 TT0      -0.061700
     43 C46        -23.9000     4.3170    35.2510 c3         1 TT0      -0.090100
     44 C47        -23.2720     1.9600    34.3530 c3         1 TT0      -0.071400
     45 C48        -22.5070     2.5280    33.1290 c3         1 TT0      -0.071400
     46 C49        -23.4420     3.1370    32.0490 c3         1 TT0      -0.069400
     47 C50        -22.7260     3.6720    30.7780 c3         1 TT0      -0.058200
     48 C51        -21.8630     4.9230    31.0890 c3         1 TT0      -0.088100
     49 C52        -23.7630     3.9260    29.6460 c3         1 TT0      -0.074400
     50 C53        -23.1520     4.2560    28.2610 c3         1 TT0      -0.074400
     51 C54        -24.1910     4.4000    27.1210 c3         1 TT0      -0.077900
     52 C55        -24.9690     3.1160    26.7130 c3         1 TT0      -0.065200
     53 C56        -26.0250     3.4330    25.6260 c3         1 TT0      -0.086100
     54 C57        -24.0640     1.9130    26.3150 c3         1 TT0      -0.075900
     55 C58        -23.0780     2.1580    25.1390 c3         1 TT0      -0.070400
     56 C59        -22.3210     0.8820    24.6670 c3         1 TT0      -0.062200
     57 C60        -21.4610     0.2410    25.7860 c3         1 TT0      -0.093100
     58 C61        -21.5010     1.1100    23.3630 c3         1 TT0      -0.068400
     59 C62        -20.2490     2.0170    23.5020 c3         1 TT0      -0.078900
     60 C63        -19.4980     2.3450    22.1820 c3         1 TT0      -0.069900
     61 C64        -18.9520     1.1220    21.3820 c3         1 TT0      -0.064200
     62 C65        -19.9540     0.6160    20.3130 c3         1 TT0      -0.094100
     63 C66        -17.5240     1.3690    20.8040 c3         1 TT0      -0.071900
     64 C67        -17.3570     2.4880    19.7330 c3         1 TT0      -0.068900
     65 C68        -17.6370     2.1320    18.2410 c3         1 TT0      -0.071400
     66 C69        -16.5730     1.2980    17.4590 c3         1 TT0      -0.059200
     67 C70        -16.4830    -0.1820    17.9030 c3         1 TT0      -0.087100
     68 C71        -15.1840     1.9910    17.3810 c3         1 TT0      -0.077900
     69 C72        -14.2060     1.3090    16.3940 c3         1 TT0      -0.069900
     70 C73        -12.9150     2.1220    16.1400 c3         1 TT0      -0.078900
     71 C74        -11.9840     1.4970    15.0610 c3         1 TT0      -0.049200
     72 C75        -11.2550     0.2340    15.5880 c3         1 TT0      -0.094100
     73 C76        -11.0000     2.5530    14.4870 c3         1 TT0      -0.097900
     74 C77        -10.1410     2.0290    13.3040 c3         1 TT0       0.160600
     75 C79        -10.3930     3.9890    11.7770 c3         1 TT0       0.137600
     76 C80        -28.2340     3.9440    34.8080 c3         1 TT0      -0.094100
     77 C81        -26.6990     7.2490    30.8490 c3         1 TT0      -0.087100
     78 C82        -21.7280     9.6190    28.1860 c3         1 TT0      -0.094100
     79 C83        -22.4550     8.0640    22.6500 c3         1 TT0      -0.093100
     80 C84        -24.8510     4.0140    21.5500 c3         1 TT0      -0.086100
     81 C85        -23.6330     1.0200    17.3290 c3         1 TT0      -0.088100
     82 C86        -20.5700     1.3060    12.9060 c3         1 TT0      -0.090100
     83 C87        -14.0000     2.9540    11.3900 c3         1 TT0      -0.095400
     84 C88        -13.3360     4.2760    10.9210 c3         1 TT0       0.162100
     85 C90        -11.0890     3.2160    10.6000 c3         1 TT0       0.146800
     86 C91        -10.1340     2.9330     9.4020 c3         1 TT0       0.163600
     87 O32        -31.0160     5.7420    36.9780 os         1 TT0      -0.479500
     88 O36        -32.5620     4.9730    41.0190 oh         1 TT0      -0.724500
     89 O37        -29.9700     4.7230    39.6070 os         1 TT0      -0.477000
     90 O78         -9.5330     3.1260    12.5750 os         1 TT0      -0.479500
     91 O89        -12.1920     4.0040    10.0680 os         1 TT0      -0.477000
     92 O92         -9.2220     1.8530     9.6820 oh         1 TT0      -0.724500
     93 H1         -16.3040     4.2100    13.7500 hc         1 TT0       0.035700
     94 H2         -14.7220     3.4940    14.1180 hc         1 TT0       0.035700
     95 H3         -14.8420     4.9720    13.1420 hc         1 TT0       0.035700
     96 H4         -16.0340     3.6610    11.3490 hc         1 TT0       0.047200
     97 H5         -16.0880     1.1900    11.3850 hc         1 TT0       0.039450
     98 H6         -15.3980     1.1610    13.0010 hc         1 TT0       0.039450
     99 H7         -18.0810     2.4780    12.3260 hc         1 TT0       0.038450
    100 H8         -17.4100     2.2270    13.9370 hc         1 TT0       0.038450
    101 H9         -17.5090    -0.2790    13.5580 hc         1 TT0       0.035950
    102 H10        -18.2460     0.0060    11.9930 hc         1 TT0       0.035950
    103 H11        -19.9480    -0.6240    13.5680 hc         1 TT0       0.038700
    104 H12        -18.8090    -0.0490    15.6340 hc         1 TT0       0.038450
    105 H13        -19.0210     1.6680    15.3680 hc         1 TT0       0.038450
    106 H14        -21.4290    -0.1930    15.6680 hc         1 TT0       0.037200
    107 H15        -20.5340     0.4080    17.0530 hc         1 TT0       0.037200
    108 H16        -20.9230     2.8040    16.0000 hc         1 TT0       0.034950
    109 H17        -22.2170     2.0330    15.0950 hc         1 TT0       0.034950
    110 H18        -21.9340     2.0650    18.1250 hc         1 TT0       0.042700
    111 H19        -22.4220     4.3030    17.0150 hc         1 TT0       0.037450
    112 H20        -23.9120     3.6280    16.3900 hc         1 TT0       0.037450
    113 H21        -24.3630     4.9880    18.3550 hc         1 TT0       0.039200
    114 H22        -24.7660     3.3200    18.7220 hc         1 TT0       0.039200
    115 H23        -22.6850     3.0550    20.0440 hc         1 TT0       0.041450
    116 H24        -22.0850     4.6060    19.4740 hc         1 TT0       0.041450
    117 H25        -23.9270     5.7660    20.7020 hc         1 TT0       0.042700
    118 H26        -22.1330     3.9380    22.3600 hc         1 TT0       0.039200
    119 H27        -21.6470     5.4650    21.6640 hc         1 TT0       0.039200
    120 H28        -23.6470     5.0140    23.9280 hc         1 TT0       0.040200
    121 H29        -22.0240     5.6440    24.0650 hc         1 TT0       0.040200
    122 H30        -24.3340     7.0420    22.6260 hc         1 TT0       0.039200
    123 H31        -24.5410     8.5550    24.4800 hc         1 TT0       0.038450
    124 H32        -24.7690     6.9030    25.0180 hc         1 TT0       0.038450
    125 H33        -22.3500     6.9280    25.8930 hc         1 TT0       0.036200
    126 H34        -22.2750     8.6360    25.4630 hc         1 TT0       0.036200
    127 H35        -24.1710     9.1090    27.0300 hc         1 TT0       0.037450
    128 H36        -24.3130     7.3970    27.3870 hc         1 TT0       0.037450
    129 H37        -21.8720     7.4890    28.2200 hc         1 TT0       0.044200
    130 H38        -23.6750     7.1690    29.7490 hc         1 TT0       0.040450
    131 H39        -22.4850     8.2390    30.4670 hc         1 TT0       0.040450
    132 H40        -23.9670    10.2190    29.8920 hc         1 TT0       0.036700
    133 H41        -25.1750     9.1210    29.2600 hc         1 TT0       0.036700
    134 H42        -24.1800     9.3370    32.1420 hc         1 TT0       0.036200
    135 H43        -25.7370     9.8640    31.5340 hc         1 TT0       0.036200
    136 H44        -24.7940     6.9610    31.7940 hc         1 TT0       0.042200
    137 H45        -25.2100     8.0780    33.9180 hc         1 TT0       0.036200
    138 H46        -26.7980     8.6060    33.4170 hc         1 TT0       0.036200
    139 H47        -26.1530     5.6230    33.5040 hc         1 TT0       0.040700
    140 H48        -26.4110     6.5060    35.0030 hc         1 TT0       0.040700
    141 H49        -28.6670     7.3080    33.9010 hc         1 TT0       0.035950
    142 H50        -28.4450     5.9660    32.7910 hc         1 TT0       0.035950
    143 H51        -28.6130     5.7960    35.8330 hc         1 TT0       0.049200
    144 H52        -30.7540     6.3560    34.4890 hc         1 TT0       0.048200
    145 H53        -30.6440     4.7460    33.8060 hc         1 TT0       0.048200
    146 H54        -32.2210     4.6860    35.6320 h1         1 TT0       0.033700
    147 H55        -30.7840     3.8010    36.1890 h1         1 TT0       0.033700
    148 H56        -31.8200     6.3930    38.7970 h1         1 TT0       0.062700
    149 H57        -32.8450     5.2720    37.8970 h1         1 TT0       0.062700
    150 H58        -31.0860     3.4370    38.3650 h1         1 TT0       0.038700
    151 H59        -31.7110     3.0790    40.7320 h1         1 TT0       0.034200
    152 H60        -33.0960     3.4430    39.6970 h1         1 TT0       0.034200
    153 H61        -28.6510     3.2000    39.0730 h1         1 TT0       0.042950
    154 H62        -28.8410     4.4710    37.8410 h1         1 TT0       0.042950
    155 H63        -27.4760     6.0000    38.9840 hc         1 TT0       0.050200
    156 H64        -27.7960     5.2900    40.5600 hc         1 TT0       0.050200
    157 H65        -26.3490     3.3830    40.0950 hc         1 TT0       0.047200
    158 H66        -25.4260     5.4910    41.1150 hc         1 TT0       0.035700
    159 H67        -24.1930     4.5520    40.2700 hc         1 TT0       0.035700
    160 H68        -24.8740     6.0070    39.5080 hc         1 TT0       0.035700
    161 H69        -25.7340     4.6660    37.3870 hc         1 TT0       0.039450
    162 H70        -26.6600     3.1980    37.6370 hc         1 TT0       0.039450
    163 H71        -23.6660     3.5290    38.2400 hc         1 TT0       0.038450
    164 H72        -24.6270     2.1670    38.7870 hc         1 TT0       0.038450
    165 H73        -25.2780     1.9290    36.2080 hc         1 TT0       0.035950
    166 H74        -23.8360     1.2200    36.8960 hc         1 TT0       0.035950
    167 H75        -22.4110     3.0000    36.0330 hc         1 TT0       0.038700
    168 H76        -23.8910     4.9620    36.1360 hc         1 TT0       0.033867
    169 H77        -23.2480     4.7990    34.5150 hc         1 TT0       0.033867
    170 H78        -24.9150     4.2820    34.8480 hc         1 TT0       0.033867
    171 H79        -24.2670     1.6290    34.0300 hc         1 TT0       0.038450
    172 H80        -22.7510     1.0500    34.6780 hc         1 TT0       0.038450
    173 H81        -21.9440     1.7090    32.6640 hc         1 TT0       0.037200
    174 H82        -21.7620     3.2580    33.4670 hc         1 TT0       0.037200
    175 H83        -24.0490     3.9410    32.4800 hc         1 TT0       0.034950
    176 H84        -24.1490     2.3540    31.7480 hc         1 TT0       0.034950
    177 H85        -22.0500     2.8820    30.4250 hc         1 TT0       0.042700
    178 H86        -21.0990     4.7010    31.8410 hc         1 TT0       0.032533
    179 H87        -21.3350     5.2780    30.1970 hc         1 TT0       0.032533
    180 H88        -22.4860     5.7410    31.4690 hc         1 TT0       0.032533
    181 H89        -24.4390     4.7360    29.9450 hc         1 TT0       0.037450
    182 H90        -24.3810     3.0270    29.5420 hc         1 TT0       0.037450
    183 H91        -22.4070     3.4980    27.9940 hc         1 TT0       0.039200
    184 H92        -22.6080     5.2040    28.3280 hc         1 TT0       0.039200
    185 H93        -23.6750     4.7990    26.2410 hc         1 TT0       0.041450
    186 H94        -24.9190     5.1650    27.4170 hc         1 TT0       0.041450
    187 H95        -25.5420     2.7920    27.5900 hc         1 TT0       0.042700
    188 H96        -26.7340     4.1870    25.9880 hc         1 TT0       0.033033
    189 H97        -25.5570     3.8220    24.7160 hc         1 TT0       0.033033
    190 H98        -26.5950     2.5340    25.3630 hc         1 TT0       0.033033
    191 H99        -24.7120     1.0650    26.0580 hc         1 TT0       0.039200
    192 H100       -23.5010     1.5970    27.2000 hc         1 TT0       0.039200
    193 H101       -22.3520     2.9260    25.4320 hc         1 TT0       0.040200
    194 H102       -23.6340     2.5600    24.2850 hc         1 TT0       0.040200
    195 H103       -23.0900     0.1440    24.4070 hc         1 TT0       0.039200
    196 H104       -22.0910    -0.1510    26.5920 hc         1 TT0       0.035033
    197 H105       -20.8750    -0.5980    25.3920 hc         1 TT0       0.035033
    198 H106       -20.7680     0.9710    26.2190 hc         1 TT0       0.035033
    199 H107       -22.1630     1.5210    22.5910 hc         1 TT0       0.038450
    200 H108       -21.1800     0.1260    23.0030 hc         1 TT0       0.038450
    201 H109       -19.5380     1.5440    24.1900 hc         1 TT0       0.036200
    202 H110       -20.5400     2.9660    23.9670 hc         1 TT0       0.036200
    203 H111       -18.6600     2.9990    22.4530 hc         1 TT0       0.037450
    204 H112       -20.1420     2.9490    21.5330 hc         1 TT0       0.037450
    205 H113       -18.8260     0.3010    22.0990 hc         1 TT0       0.044200
    206 H114       -20.8640     0.2140    20.7690 hc         1 TT0       0.034700
    207 H115       -20.2550     1.4310    19.6470 hc         1 TT0       0.034700
    208 H116       -19.5080    -0.1820    19.7080 hc         1 TT0       0.034700
    209 H117       -17.1330     0.4210    20.4290 hc         1 TT0       0.040450
    210 H118       -16.8710     1.6230    21.6480 hc         1 TT0       0.040450
    211 H119       -16.3380     2.8850    19.8090 hc         1 TT0       0.036700
    212 H120       -18.0070     3.3280    20.0070 hc         1 TT0       0.036700
    213 H121       -17.7600     3.0800    17.7030 hc         1 TT0       0.036200
    214 H122       -18.6050     1.6320    18.1510 hc         1 TT0       0.036200
    215 H123       -16.9420     1.2700    16.4280 hc         1 TT0       0.042200
    216 H124       -17.4770    -0.5860    18.1290 hc         1 TT0       0.032700
    217 H125       -16.0540    -0.7980    17.1030 hc         1 TT0       0.032700
    218 H126       -15.8430    -0.2950    18.7850 hc         1 TT0       0.032700
    219 H127       -14.7220     2.0180    18.3750 hc         1 TT0       0.036200
    220 H128       -15.3300     3.0330    17.0690 hc         1 TT0       0.036200
    221 H129       -14.7200     1.1560    15.4370 hc         1 TT0       0.040700
    222 H130       -13.9420     0.3180    16.7780 hc         1 TT0       0.040700
    223 H131       -12.3620     2.2380    17.0800 hc         1 TT0       0.035950
    224 H132       -13.2020     3.1330    15.8290 hc         1 TT0       0.035950
    225 H133       -12.6230     1.1800    14.2270 hc         1 TT0       0.049200
    226 H134       -11.9680    -0.5100    15.9590 hc         1 TT0       0.035200
    227 H135       -10.6730    -0.2480    14.7940 hc         1 TT0       0.035200
    228 H136       -10.5720     0.4920    16.4070 hc         1 TT0       0.035200
    229 H137       -10.3350     2.9100    15.2820 hc         1 TT0       0.048200
    230 H138       -11.5950     3.4140    14.1670 hc         1 TT0       0.048200
    231 H139       -10.7570     1.4040    12.6480 h1         1 TT0       0.033700
    232 H140        -9.3540     1.3790    13.7090 h1         1 TT0       0.033700
    233 H141        -9.7960     4.8010    11.3430 h1         1 TT0       0.062700
    234 H142       -11.1380     4.4720    12.4140 h1         1 TT0       0.062700
    235 H143       -28.7050     3.2910    35.5520 hc         1 TT0       0.035200
    236 H144       -28.3690     3.4890    33.8190 hc         1 TT0       0.035200
    237 H145       -27.1640     3.9630    35.0340 hc         1 TT0       0.035200
    238 H146       -27.0170     6.2260    31.0790 hc         1 TT0       0.032700
    239 H147       -27.5730     7.9100    30.9010 hc         1 TT0       0.032700
    240 H148       -26.3380     7.2330    29.8150 hc         1 TT0       0.032700
    241 H149       -21.0470     9.7100    29.0410 hc         1 TT0       0.034700
    242 H150       -21.1160     9.6090    27.2760 hc         1 TT0       0.034700
    243 H151       -22.3640    10.5110    28.1570 hc         1 TT0       0.034700
    244 H152       -22.8590     9.0840    22.6400 hc         1 TT0       0.035033
    245 H153       -21.5070     8.0740    23.2010 hc         1 TT0       0.035033
    246 H154       -22.2440     7.7820    21.6130 hc         1 TT0       0.035033
    247 H155       -25.3100     4.5590    22.3820 hc         1 TT0       0.033033
    248 H156       -25.6200     3.9140    20.7770 hc         1 TT0       0.033033
    249 H157       -24.5820     3.0100    21.9000 hc         1 TT0       0.033033
    250 H158       -24.2420     1.1290    18.2340 hc         1 TT0       0.032533
    251 H159       -24.3000     1.0420    16.4590 hc         1 TT0       0.032533
    252 H160       -23.1630     0.0310    17.3770 hc         1 TT0       0.032533
    253 H161       -21.6030     1.0490    13.1630 hc         1 TT0       0.033867
    254 H162       -20.4040     2.3650    13.1380 hc         1 TT0       0.033867
    255 H163       -20.4640     1.1710    11.8230 hc         1 TT0       0.033867
    256 H164       -13.3380     2.4420    12.0990 hc         1 TT0       0.050200
    257 H165       -14.1080     2.2950    10.5190 hc         1 TT0       0.050200
    258 H166       -13.0550     4.8890    11.7860 h1         1 TT0       0.042950
    259 H167       -14.0770     4.8520    10.3510 h1         1 TT0       0.042950
    260 H168       -11.4710     2.2510    10.9440 h1         1 TT0       0.038700
    261 H169       -10.7440     2.6770     8.5250 h1         1 TT0       0.034200
    262 H170        -9.5810     3.8500     9.1590 h1         1 TT0       0.034200
    263 H171       -33.0720     4.5870    41.7700 ho         1 TT0       0.505500
    264 H172        -8.6430     1.7530     8.8900 ho         1 TT0       0.505500
@<TRIPOS>BOND
     1     1     2 1   
     2     1    93 1   
     3     1    94 1   
     4     1    95 1   
     5     2     3 1   
     6     2    83 1   
     7     2    96 1   
     8     3     4 1   
     9     3    97 1   
    10     3    98 1   
    11     4     5 1   
    12     4    99 1   
    13     4   100 1   
    14     5     6 1   
    15     5   101 1   
    16     5   102 1   
    17     6     7 1   
    18     6    82 1   
    19     6   103 1   
    20     7     8 1   
    21     7   104 1   
    22     7   105 1   
    23     8     9 1   
    24     8   106 1   
    25     8   107 1   
    26     9    10 1   
    27     9   108 1   
    28     9   109 1   
    29    10    11 1   
    30    10    81 1   
    31    10   110 1   
    32    11    12 1   
    33    11   111 1   
    34    11   112 1   
    35    12    13 1   
    36    12   113 1   
    37    12   114 1   
    38    13    14 1   
    39    13   115 1   
    40    13   116 1   
    41    14    15 1   
    42    14    80 1   
    43    14   117 1   
    44    15    16 1   
    45    15   118 1   
    46    15   119 1   
    47    16    17 1   
    48    16   120 1   
    49    16   121 1   
    50    17    18 1   
    51    17    79 1   
    52    17   122 1   
    53    18    19 1   
    54    18   123 1   
    55    18   124 1   
    56    19    20 1   
    57    19   125 1   
    58    19   126 1   
    59    20    21 1   
    60    20   127 1   
    61    20   128 1   
    62    21    22 1   
    63    21    78 1   
    64    21   129 1   
    65    22    23 1   
    66    22   130 1   
    67    22   131 1   
    68    23    24 1   
    69    23   132 1   
    70    23   133 1   
    71    24    25 1   
    72    24   134 1   
    73    24   135 1   
    74    25    26 1   
    75    25    77 1   
    76    25   136 1   
    77    26    27 1   
    78    26   137 1   
    79    26   138 1   
    80    27    28 1   
    81    27   139 1   
    82    27   140 1   
    83    28    29 1   
    84    28   141 1   
    85    28   142 1   
    86    29    30 1   
    87    29    76 1   
    88    29   143 1   
    89    30    31 1   
    90    30   144 1   
    91    30   145 1   
    92    31    87 1   
    93    31   146 1   
    94    31   147 1   
    95    32    33 1   
    96    32    87 1   
    97    32   148 1   
    98    32   149 1   
    99    33    34 1   
   100    33    89 1   
   101    33   150 1   
   102    34    88 1   
   103    34   151 1   
   104    34   152 1   
   105    35    36 1   
   106    35    89 1   
   107    35   153 1   
   108    35   154 1   
   109    36    37 1   
   110    36   155 1   
   111    36   156 1   
   112    37    38 1   
   113    37    39 1   
   114    37   157 1   
   115    38   158 1   
   116    38   159 1   
   117    38   160 1   
   118    39    40 1   
   119    39   161 1   
   120    39   162 1   
   121    40    41 1   
   122    40   163 1   
   123    40   164 1   
   124    41    42 1   
   125    41   165 1   
   126    41   166 1   
   127    42    43 1   
   128    42    44 1   
   129    42   167 1   
   130    43   168 1   
   131    43   169 1   
   132    43   170 1   
   133    44    45 1   
   134    44   171 1   
   135    44   172 1   
   136    45    46 1   
   137    45   173 1   
   138    45   174 1   
   139    46    47 1   
   140    46   175 1   
   141    46   176 1   
   142    47    48 1   
   143    47    49 1   
   144    47   177 1   
   145    48   178 1   
   146    48   179 1   
   147    48   180 1   
   148    49    50 1   
   149    49   181 1   
   150    49   182 1   
   151    50    51 1   
   152    50   183 1   
   153    50   184 1   
   154    51    52 1   
   155    51   185 1   
   156    51   186 1   
   157    52    53 1   
   158    52    54 1   
   159    52   187 1   
   160    53   188 1   
   161    53   189 1   
   162    53   190 1   
   163    54    55 1   
   164    54   191 1   
   165    54   192 1   
   166    55    56 1   
   167    55   193 1   
   168    55   194 1   
   169    56    57 1   
   170    56    58 1   
   171    56   195 1   
   172    57   196 1   
   173    57   197 1   
   174    57   198 1   
   175    58    59 1   
   176    58   199 1   
   177    58   200 1   
   178    59    60 1   
   179    59   201 1   
   180    59   202 1   
   181    60    61 1   
   182    60   203 1   
   183    60   204 1   
   184    61    62 1   
   185    61    63 1   
   186    61   205 1   
   187    62   206 1   
   188    62   207 1   
   189    62   208 1   
   190    63    64 1   
   191    63   209 1   
   192    63   210 1   
   193    64    65 1   
   194    64   211 1   
   195    64   212 1   
   196    65    66 1   
   197    65   213 1   
   198    65   214 1   
   199    66    67 1   
   200    66    68 1   
   201    66   215 1   
   202    67   216 1   
   203    67   217 1   
   204    67   218 1   
   205    68    69 1   
   206    68   219 1   
   207    68   220 1   
   208    69    70 1   
   209    69   221 1   
   210    69   222 1   
   211    70    71 1   
   212    70   223 1   
   213    70   224 1   
   214    71    72 1   
   215    71    73 1   
   216    71   225 1   
   217    72   226 1   
   218    72   227 1   
   219    72   228 1   
   220    73    74 1   
   221    73   229 1   
   222    73   230 1   
   223    74    90 1   
   224    74   231 1   
   225    74   232 1   
   226    75    85 1   
   227    75    90 1   
   228    75   233 1   
   229    75   234 1   
   230    76   235 1   
   231    76   236 1   
   232    76   237 1   
   233    77   238 1   
   234    77   239 1   
   235    77   240 1   
   236    78   241 1   
   237    78   242 1   
   238    78   243 1   
   239    79   244 1   
   240    79   245 1   
   241    79   246 1   
   242    80   247 1   
   243    80   248 1   
   244    80   249 1   
   245    81   250 1   
   246    81   251 1   
   247    81   252 1   
   248    82   253 1   
   249    82   254 1   
   250    82   255 1   
   251    83    84 1   
   252    83   256 1   
   253    83   257 1   
   254    84    91 1   
   255    84   258 1   
   256    84   259 1   
   257    85    86 1   
   258    85    91 1   
   259    85   260 1   
   260    86    92 1   
   261    86   261 1   
   262    86   262 1   
   263    88   263 1   
   264    92   264 1   
@<TRIPOS>SUBSTRUCTURE
     1 TT0         1 TEMP              0 ****  ****    0 ROOT
