@<TRIPOS>MOLECULE
TT0
  264   264     1     0     0
SMALL
abcg2


@<TRIPOS>ATOM
      1 C01        -13.9190     4.3560    13.0080 c3         1 TT0      -0.097100
      2 C02        -14.2400     4.2930    11.5050 c3         1 TT0      -0.057700
      3 C03        -15.5960     3.6040    11.3220 c3         1 TT0      -0.073900
      4 C04        -16.8010     4.2930    11.9790 c3         1 TT0      -0.074900
      5 C05        -18.0860     4.1390    11.1490 c3         1 TT0      -0.069400
      6 C06        -19.4110     4.2970    11.9130 c3         1 TT0      -0.061700
      7 C07        -19.4740     3.5490    13.2560 c3         1 TT0      -0.071400
      8 C08        -20.8960     3.0320    13.6220 c3         1 TT0      -0.071400
      9 C09        -21.5670     3.7140    14.8280 c3         1 TT0      -0.069400
     10 C10        -22.4110     2.8500    15.7910 c3         1 TT0      -0.058200
     11 C11        -23.5060     3.7020    16.4500 c3         1 TT0      -0.074400
     12 C12        -24.1820     3.0680    17.6720 c3         1 TT0      -0.074400
     13 C13        -23.2340     2.9280    18.8700 c3         1 TT0      -0.077900
     14 C14        -23.9340     2.7080    20.2140 c3         1 TT0      -0.065200
     15 C15        -22.9050     2.5420    21.3570 c3         1 TT0      -0.075900
     16 C16        -23.3890     3.1960    22.6690 c3         1 TT0      -0.070400
     17 C17        -23.2930     4.7380    22.6630 c3         1 TT0      -0.062200
     18 C18        -24.2470     5.4050    23.7030 c3         1 TT0      -0.068400
     19 C19        -23.5400     6.0140    24.9120 c3         1 TT0      -0.078900
     20 C20        -24.3270     6.1970    26.2120 c3         1 TT0      -0.069900
     21 C21        -23.3990     6.1330    27.4310 c3         1 TT0      -0.064200
     22 C22        -24.1610     6.2290    28.7640 c3         1 TT0      -0.071900
     23 C23        -25.0770     7.4440    28.9270 c3         1 TT0      -0.068900
     24 C24        -25.4840     7.7680    30.3780 c3         1 TT0      -0.071400
     25 C25        -25.8690     6.5990    31.3120 c3         1 TT0      -0.059200
     26 C26        -26.4670     7.1990    32.6040 c3         1 TT0      -0.077900
     27 C27        -26.7420     6.2390    33.7640 c3         1 TT0      -0.069900
     28 C28        -27.8950     5.2260    33.5690 c3         1 TT0      -0.078900
     29 C29        -28.9430     5.2100    34.6930 c3         1 TT0      -0.049200
     30 C30        -30.0230     4.1530    34.4110 c3         1 TT0      -0.097900
     31 C31        -30.8650     3.7600    35.6260 c3         1 TT0       0.160600
     32 C33        -32.3860     4.9960    37.0940 c3         1 TT0       0.137600
     33 C34        -32.2250     4.5690    38.5600 c3         1 TT0       0.146800
     34 C35        -33.5810     4.3910    39.2360 c3         1 TT0       0.163600
     35 C38        -30.0650     5.5620    39.0190 c3         1 TT0       0.162100
     36 C39        -29.3250     6.3010    40.1180 c3         1 TT0      -0.095400
     37 C40        -27.9080     5.7620    40.4350 c3         1 TT0      -0.057700
     38 C41        -27.3920     6.5630    41.6310 c3         1 TT0      -0.097100
     39 C42        -26.9640     5.7580    39.1810 c3         1 TT0      -0.073900
     40 C43        -25.4480     5.8490    39.4740 c3         1 TT0      -0.074900
     41 C44        -24.5700     4.6710    39.0230 c3         1 TT0      -0.069400
     42 C45        -23.9660     4.7400    37.6060 c3         1 TT0      -0.061700
     43 C46        -24.9580     5.2680    36.5740 c3         1 TT0      -0.090100
     44 C47        -23.3670     3.3970    37.1690 c3         1 TT0      -0.071400
     45 C48        -22.3610     3.4960    36.0070 c3         1 TT0      -0.071400
     46 C49        -22.8900     3.4130    34.5710 c3         1 TT0      -0.069400
     47 C50        -21.8000     3.2460    33.4790 c3         1 TT0      -0.058200
     48 C51        -20.4620     3.8760    33.9090 c3         1 TT0      -0.088100
     49 C52        -22.2750     3.8360    32.1360 c3         1 TT0      -0.074400
     50 C53        -21.1750     3.9670    31.0640 c3         1 TT0      -0.074400
     51 C54        -21.6910     3.9300    29.6200 c3         1 TT0      -0.077900
     52 C55        -21.7560     2.5180    28.9890 c3         1 TT0      -0.065200
     53 C56        -23.1800     2.2180    28.4960 c3         1 TT0      -0.086100
     54 C57        -20.6400     2.2770    27.9350 c3         1 TT0      -0.075900
     55 C58        -20.9980     2.3050    26.4310 c3         1 TT0      -0.070400
     56 C59        -20.0170     1.5560    25.4760 c3         1 TT0      -0.062200
     57 C60        -18.8370     0.8360    26.1540 c3         1 TT0      -0.093100
     58 C61        -19.5710     2.4070    24.2420 c3         1 TT0      -0.068400
     59 C62        -18.1140     2.8940    24.1950 c3         1 TT0      -0.078900
     60 C63        -17.5290     3.2890    22.8010 c3         1 TT0      -0.069900
     61 C64        -18.2490     2.7000    21.5510 c3         1 TT0      -0.064200
     62 C65        -19.3580     3.6540    21.1240 c3         1 TT0      -0.094100
     63 C66        -17.2630     2.3500    20.3950 c3         1 TT0      -0.071900
     64 C67        -17.2990     3.2420    19.1360 c3         1 TT0      -0.068900
     65 C68        -18.3580     2.9290    18.0640 c3         1 TT0      -0.071400
     66 C69        -18.1670     1.6920    17.1510 c3         1 TT0      -0.059200
     67 C70        -18.1640     0.3400    17.8720 c3         1 TT0      -0.087100
     68 C71        -16.8940     1.8620    16.2950 c3         1 TT0      -0.077900
     69 C72        -16.5310     0.6990    15.3680 c3         1 TT0      -0.069900
     70 C73        -15.7100     1.2490    14.1880 c3         1 TT0      -0.078900
     71 C74        -14.8180     0.3050    13.3470 c3         1 TT0      -0.049200
     72 C75        -14.8500    -1.1550    13.8080 c3         1 TT0      -0.094100
     73 C76        -13.3580     0.8470    13.3210 c3         1 TT0      -0.097900
     74 C77        -12.5340     0.2050    12.1940 c3         1 TT0       0.160600
     75 C79        -10.2410     1.1530    12.0180 c3         1 TT0       0.137600
     76 C80        -28.2320     4.9680    36.0220 c3         1 TT0      -0.094100
     77 C81        -26.8090     5.5890    30.6540 c3         1 TT0      -0.087100
     78 C82        -22.2110     7.0870    27.3380 c3         1 TT0      -0.094100
     79 C83        -21.8370     5.1650    22.8590 c3         1 TT0      -0.093100
     80 C84        -24.9190     1.5320    20.1860 c3         1 TT0      -0.086100
     81 C85        -23.0010     1.5800    15.1620 c3         1 TT0      -0.088100
     82 C86        -19.8490     5.7570    12.0640 c3         1 TT0      -0.090100
     83 C87        -13.1540     3.4860    10.7360 c3         1 TT0      -0.095400
     84 C88        -11.7740     3.6020    11.3590 c3         1 TT0       0.162100
     85 C90        -10.4350     1.6930    10.5810 c3         1 TT0       0.146800
     86 C91         -9.1790     1.5430     9.6850 c3         1 TT0       0.163600
     87 O32        -31.1530     4.9360    36.3910 os         1 TT0      -0.479500
     88 O36        -34.4800     5.4150    38.8160 oh         1 TT0      -0.724500
     89 O37        -31.4650     5.4830    39.3460 os         1 TT0      -0.477000
     90 O78        -11.1280     0.1030    12.4380 os         1 TT0      -0.479500
     91 O89        -10.7090     3.1000    10.5310 os         1 TT0      -0.477000
     92 O92         -8.2700     0.5680    10.1900 oh         1 TT0      -0.724500
     93 H1         -14.7250     4.8240    13.5720 hc         1 TT0       0.035700
     94 H2         -13.7590     3.3250    13.3620 hc         1 TT0       0.035700
     95 H3         -13.0100     4.9220    13.2160 hc         1 TT0       0.035700
     96 H4         -14.3020     5.3090    11.1030 hc         1 TT0       0.047200
     97 H5         -15.7900     3.4780    10.2510 hc         1 TT0       0.039450
     98 H6         -15.5310     2.5960    11.7370 hc         1 TT0       0.039450
     99 H7         -16.6000     5.3480    12.1880 hc         1 TT0       0.038450
    100 H8         -16.9610     3.8440    12.9600 hc         1 TT0       0.038450
    101 H9         -18.0610     3.1450    10.6920 hc         1 TT0       0.035950
    102 H10        -18.0600     4.8580    10.3230 hc         1 TT0       0.035950
    103 H11        -20.1580     3.8200    11.2640 hc         1 TT0       0.038700
    104 H12        -18.7720     2.7110    13.2750 hc         1 TT0       0.038450
    105 H13        -19.1390     4.2250    14.0490 hc         1 TT0       0.038450
    106 H14        -21.5400     3.0970    12.7440 hc         1 TT0       0.037200
    107 H15        -20.7890     1.9650    13.8230 hc         1 TT0       0.037200
    108 H16        -20.8240     4.2820    15.3950 hc         1 TT0       0.034950
    109 H17        -22.2280     4.4940    14.4270 hc         1 TT0       0.034950
    110 H18        -21.7430     2.5130    16.5910 hc         1 TT0       0.042700
    111 H19        -23.0710     4.6540    16.7720 hc         1 TT0       0.037450
    112 H20        -24.2570     3.9290    15.6850 hc         1 TT0       0.037450
    113 H21        -25.0090     3.7160    17.9810 hc         1 TT0       0.039200
    114 H22        -24.6180     2.1010    17.4180 hc         1 TT0       0.039200
    115 H23        -22.5580     2.0790    18.7140 hc         1 TT0       0.041450
    116 H24        -22.6090     3.8240    18.9400 hc         1 TT0       0.041450
    117 H25        -24.5260     3.6070    20.4280 hc         1 TT0       0.042700
    118 H26        -22.7710     1.4700    21.5350 hc         1 TT0       0.039200
    119 H27        -21.9320     2.9270    21.0280 hc         1 TT0       0.039200
    120 H28        -24.4500     2.9440    22.7580 hc         1 TT0       0.040200
    121 H29        -22.8460     2.8040    23.5330 hc         1 TT0       0.040200
    122 H30        -23.6110     5.0740    21.6720 hc         1 TT0       0.039200
    123 H31        -24.8130     6.1950    23.1990 hc         1 TT0       0.038450
    124 H32        -24.9820     4.6700    24.0450 hc         1 TT0       0.038450
    125 H33        -22.6340     5.4540    25.1440 hc         1 TT0       0.036200
    126 H34        -23.1350     6.9930    24.6300 hc         1 TT0       0.036200
    127 H35        -24.8610     7.1520    26.1740 hc         1 TT0       0.037450
    128 H36        -25.0870     5.4130    26.3010 hc         1 TT0       0.037450
    129 H37        -22.9790     5.1210    27.4030 hc         1 TT0       0.044200
    130 H38        -24.7250     5.3050    28.8820 hc         1 TT0       0.040450
    131 H39        -23.4280     6.2470    29.5750 hc         1 TT0       0.040450
    132 H40        -24.5670     8.3220    28.5200 hc         1 TT0       0.036700
    133 H41        -25.9790     7.3020    28.3240 hc         1 TT0       0.036700
    134 H42        -24.6450     8.2950    30.8470 hc         1 TT0       0.036200
    135 H43        -26.3180     8.4780    30.3510 hc         1 TT0       0.036200
    136 H44        -24.9410     6.0700    31.5850 hc         1 TT0       0.042200
    137 H45        -25.7680     7.9740    32.9370 hc         1 TT0       0.036200
    138 H46        -27.3920     7.7260    32.3340 hc         1 TT0       0.036200
    139 H47        -25.8120     5.6950    33.9400 hc         1 TT0       0.040700
    140 H48        -26.9220     6.8080    34.6840 hc         1 TT0       0.040700
    141 H49        -28.4130     5.4590    32.6380 hc         1 TT0       0.035950
    142 H50        -27.5030     4.2110    33.4510 hc         1 TT0       0.035950
    143 H51        -29.4170     6.1940    34.7340 hc         1 TT0       0.049200
    144 H52        -30.7050     4.5300    33.6400 hc         1 TT0       0.048200
    145 H53        -29.5720     3.2410    34.0070 hc         1 TT0       0.048200
    146 H54        -31.8140     3.3040    35.3280 h1         1 TT0       0.033700
    147 H55        -30.3150     3.0540    36.2580 h1         1 TT0       0.033700
    148 H56        -32.7080     6.0360    37.0430 h1         1 TT0       0.062700
    149 H57        -33.1360     4.3640    36.6090 h1         1 TT0       0.062700
    150 H58        -31.7200     3.5920    38.5630 h1         1 TT0       0.038700
    151 H59        -33.4260     4.4190    40.3190 h1         1 TT0       0.034200
    152 H60        -33.9740     3.4030    38.9730 h1         1 TT0       0.034200
    153 H61        -29.6930     4.5360    38.9130 h1         1 TT0       0.042950
    154 H62        -29.9430     6.0580    38.0600 h1         1 TT0       0.042950
    155 H63        -29.2530     7.3710    39.9000 hc         1 TT0       0.050200
    156 H64        -29.9130     6.2180    41.0360 hc         1 TT0       0.050200
    157 H65        -28.0310     4.7230    40.7580 hc         1 TT0       0.047200
    158 H66        -28.0960     6.4960    42.4630 hc         1 TT0       0.035700
    159 H67        -26.4300     6.2080    42.0040 hc         1 TT0       0.035700
    160 H68        -27.2530     7.6190    41.3770 hc         1 TT0       0.035700
    161 H69        -27.2590     6.5540    38.4870 hc         1 TT0       0.039450
    162 H70        -27.1570     4.8240    38.6520 hc         1 TT0       0.039450
    163 H71        -25.0380     6.7710    39.0460 hc         1 TT0       0.038450
    164 H72        -25.2900     5.9580    40.5430 hc         1 TT0       0.038450
    165 H73        -25.1380     3.7340    39.1210 hc         1 TT0       0.035950
    166 H74        -23.7300     4.5540    39.7160 hc         1 TT0       0.035950
    167 H75        -23.1400     5.4610    37.6550 hc         1 TT0       0.038700
    168 H76        -25.3490     6.2480    36.8460 hc         1 TT0       0.033867
    169 H77        -24.5090     5.3690    35.5860 hc         1 TT0       0.033867
    170 H78        -25.8080     4.5900    36.4650 hc         1 TT0       0.033867
    171 H79        -24.1800     2.6910    36.9570 hc         1 TT0       0.038450
    172 H80        -22.8380     2.9780    38.0320 hc         1 TT0       0.038450
    173 H81        -21.6510     2.6760    36.1470 hc         1 TT0       0.037200
    174 H82        -21.7940     4.4200    36.1370 hc         1 TT0       0.037200
    175 H83        -23.4790     4.3000    34.3330 hc         1 TT0       0.034950
    176 H84        -23.6020     2.5820    34.5050 hc         1 TT0       0.034950
    177 H85        -21.6150     2.1770    33.3290 hc         1 TT0       0.042700
    178 H86        -20.0590     3.3990    34.8010 hc         1 TT0       0.032533
    179 H87        -19.7070     3.7520    33.1320 hc         1 TT0       0.032533
    180 H88        -20.5680     4.9480    34.0940 hc         1 TT0       0.032533
    181 H89        -22.7730     4.8040    32.2920 hc         1 TT0       0.037450
    182 H90        -23.0670     3.1880    31.7390 hc         1 TT0       0.037450
    183 H91        -20.4560     3.1570    31.2200 hc         1 TT0       0.039200
    184 H92        -20.6280     4.8970    31.2350 hc         1 TT0       0.039200
    185 H93        -21.0270     4.5510    29.0140 hc         1 TT0       0.041450
    186 H94        -22.6760     4.3840    29.6080 hc         1 TT0       0.041450
    187 H95        -21.5530     1.8040    29.7930 hc         1 TT0       0.042700
    188 H96        -23.8820     2.3360    29.3220 hc         1 TT0       0.033033
    189 H97        -23.4570     2.8800    27.6740 hc         1 TT0       0.033033
    190 H98        -23.2580     1.1960    28.1150 hc         1 TT0       0.033033
    191 H99        -20.2140     1.2980    28.1530 hc         1 TT0       0.039200
    192 H100       -19.8150     2.9740    28.1120 hc         1 TT0       0.039200
    193 H101       -21.0860     3.3500    26.0990 hc         1 TT0       0.040200
    194 H102       -21.9890     1.8690    26.3140 hc         1 TT0       0.040200
    195 H103       -20.6130     0.7460    25.0450 hc         1 TT0       0.039200
    196 H104       -19.1930     0.1800    26.9480 hc         1 TT0       0.035033
    197 H105       -18.3160     0.2220    25.4190 hc         1 TT0       0.035033
    198 H106       -18.1310     1.5380    26.5970 hc         1 TT0       0.035033
    199 H107       -20.2140     3.2930    24.2280 hc         1 TT0       0.038450
    200 H108       -19.7970     1.8270    23.3520 hc         1 TT0       0.038450
    201 H109       -17.4600     2.0930    24.5420 hc         1 TT0       0.036200
    202 H110       -17.9820     3.7190    24.9010 hc         1 TT0       0.036200
    203 H111       -16.4880     2.9650    22.7570 hc         1 TT0       0.037450
    204 H112       -17.5270     4.3790    22.6910 hc         1 TT0       0.037450
    205 H113       -18.7130     1.7600    21.8470 hc         1 TT0       0.044200
    206 H114       -20.0760     3.8130    21.9230 hc         1 TT0       0.034700
    207 H115       -18.9610     4.6240    20.8260 hc         1 TT0       0.034700
    208 H116       -19.9350     3.2560    20.2910 hc         1 TT0       0.034700
    209 H117       -17.4940     1.3390    20.0750 hc         1 TT0       0.040450
    210 H118       -16.2410     2.3400    20.7770 hc         1 TT0       0.040450
    211 H119       -16.3120     3.2190    18.6660 hc         1 TT0       0.036700
    212 H120       -17.4260     4.2850    19.4370 hc         1 TT0       0.036700
    213 H121       -18.4230     3.7900    17.3900 hc         1 TT0       0.036200
    214 H122       -19.3470     2.8420    18.5370 hc         1 TT0       0.036200
    215 H123       -19.0130     1.6800    16.4580 hc         1 TT0       0.042200
    216 H124       -19.0930     0.1880    18.4300 hc         1 TT0       0.032700
    217 H125       -18.1370    -0.4660    17.1350 hc         1 TT0       0.032700
    218 H126       -17.3090     0.2130    18.5320 hc         1 TT0       0.032700
    219 H127       -16.0580     2.0740    16.9660 hc         1 TT0       0.036200
    220 H128       -17.0290     2.7590    15.6780 hc         1 TT0       0.036200
    221 H129       -17.4450     0.2280    14.9970 hc         1 TT0       0.040700
    222 H130       -15.9650    -0.0490    15.9220 hc         1 TT0       0.040700
    223 H131       -15.1120     2.0710    14.5860 hc         1 TT0       0.035950
    224 H132       -16.4350     1.7470    13.5340 hc         1 TT0       0.035950
    225 H133       -15.1800     0.3230    12.3130 hc         1 TT0       0.049200
    226 H134       -15.8720    -1.5280    13.8960 hc         1 TT0       0.035200
    227 H135       -14.3090    -1.8100    13.1240 hc         1 TT0       0.035200
    228 H136       -14.3860    -1.2630    14.7930 hc         1 TT0       0.035200
    229 H137       -12.9020     0.5940    14.2840 hc         1 TT0       0.048200
    230 H138       -13.4010     1.9420    13.2340 hc         1 TT0       0.048200
    231 H139       -12.7000     0.7880    11.2910 h1         1 TT0       0.033700
    232 H140       -12.8710    -0.8160    12.0240 h1         1 TT0       0.033700
    233 H141        -9.2570     0.7100    12.1280 h1         1 TT0       0.062700
    234 H142       -10.2860     1.9820    12.7300 h1         1 TT0       0.062700
    235 H143       -28.9330     4.9300    36.8450 hc         1 TT0       0.035200
    236 H144       -27.6520     4.0410    36.0260 hc         1 TT0       0.035200
    237 H145       -27.5520     5.7790    36.2520 hc         1 TT0       0.035200
    238 H146       -26.9540     4.7380    31.3160 hc         1 TT0       0.032700
    239 H147       -27.7890     6.0390    30.4660 hc         1 TT0       0.032700
    240 H148       -26.4290     5.2140    29.7080 hc         1 TT0       0.032700
    241 H149       -21.5480     6.9750    28.1970 hc         1 TT0       0.034700
    242 H150       -21.6310     6.8930    26.4300 hc         1 TT0       0.034700
    243 H151       -22.5410     8.1310    27.2860 hc         1 TT0       0.034700
    244 H152       -21.7120     6.2490    22.8500 hc         1 TT0       0.035033
    245 H153       -21.4340     4.7530    23.7900 hc         1 TT0       0.035033
    246 H154       -21.2110     4.7500    22.0730 hc         1 TT0       0.035033
    247 H155       -25.3960     1.4330    21.1660 hc         1 TT0       0.033033
    248 H156       -25.7330     1.7190    19.4830 hc         1 TT0       0.033033
    249 H157       -24.4060     0.6040    19.9250 hc         1 TT0       0.033033
    250 H158       -23.5900     1.0470    15.9120 hc         1 TT0       0.032533
    251 H159       -23.7320     1.8460    14.3910 hc         1 TT0       0.032533
    252 H160       -22.2380     0.9180    14.7660 hc         1 TT0       0.032533
    253 H161       -20.7990     5.8110    12.6000 hc         1 TT0       0.033867
    254 H162       -19.1200     6.3080    12.6670 hc         1 TT0       0.033867
    255 H163       -19.9350     6.2450    11.0920 hc         1 TT0       0.033867
    256 H164       -13.4830     2.4480    10.7760 hc         1 TT0       0.050200
    257 H165       -13.1280     3.8030     9.6920 hc         1 TT0       0.050200
    258 H166       -11.7360     3.0730    12.3060 h1         1 TT0       0.042950
    259 H167       -11.5010     4.6420    11.5370 h1         1 TT0       0.042950
    260 H168       -11.2470     1.1280    10.1160 h1         1 TT0       0.038700
    261 H169        -9.4960     1.2880     8.6700 h1         1 TT0       0.034200
    262 H170        -8.6950     2.5230     9.6600 h1         1 TT0       0.034200
    263 H171       -35.3350     5.2600    39.2340 ho         1 TT0       0.505500
    264 H172        -7.5060     0.5440     9.6020 ho         1 TT0       0.505500
@<TRIPOS>BOND
     1     1     2 1   
     2     1    93 1   
     3     1    94 1   
     4     1    95 1   
     5     2     3 1   
     6     2    83 1   
     7     2    96 1   
     8     3     4 1   
     9     3    97 1   
    10     3    98 1   
    11     4     5 1   
    12     4    99 1   
    13     4   100 1   
    14     5     6 1   
    15     5   101 1   
    16     5   102 1   
    17     6     7 1   
    18     6    82 1   
    19     6   103 1   
    20     7     8 1   
    21     7   104 1   
    22     7   105 1   
    23     8     9 1   
    24     8   106 1   
    25     8   107 1   
    26     9    10 1   
    27     9   108 1   
    28     9   109 1   
    29    10    11 1   
    30    10    81 1   
    31    10   110 1   
    32    11    12 1   
    33    11   111 1   
    34    11   112 1   
    35    12    13 1   
    36    12   113 1   
    37    12   114 1   
    38    13    14 1   
    39    13   115 1   
    40    13   116 1   
    41    14    15 1   
    42    14    80 1   
    43    14   117 1   
    44    15    16 1   
    45    15   118 1   
    46    15   119 1   
    47    16    17 1   
    48    16   120 1   
    49    16   121 1   
    50    17    18 1   
    51    17    79 1   
    52    17   122 1   
    53    18    19 1   
    54    18   123 1   
    55    18   124 1   
    56    19    20 1   
    57    19   125 1   
    58    19   126 1   
    59    20    21 1   
    60    20   127 1   
    61    20   128 1   
    62    21    22 1   
    63    21    78 1   
    64    21   129 1   
    65    22    23 1   
    66    22   130 1   
    67    22   131 1   
    68    23    24 1   
    69    23   132 1   
    70    23   133 1   
    71    24    25 1   
    72    24   134 1   
    73    24   135 1   
    74    25    26 1   
    75    25    77 1   
    76    25   136 1   
    77    26    27 1   
    78    26   137 1   
    79    26   138 1   
    80    27    28 1   
    81    27   139 1   
    82    27   140 1   
    83    28    29 1   
    84    28   141 1   
    85    28   142 1   
    86    29    30 1   
    87    29    76 1   
    88    29   143 1   
    89    30    31 1   
    90    30   144 1   
    91    30   145 1   
    92    31    87 1   
    93    31   146 1   
    94    31   147 1   
    95    32    33 1   
    96    32    87 1   
    97    32   148 1   
    98    32   149 1   
    99    33    34 1   
   100    33    89 1   
   101    33   150 1   
   102    34    88 1   
   103    34   151 1   
   104    34   152 1   
   105    35    36 1   
   106    35    89 1   
   107    35   153 1   
   108    35   154 1   
   109    36    37 1   
   110    36   155 1   
   111    36   156 1   
   112    37    38 1   
   113    37    39 1   
   114    37   157 1   
   115    38   158 1   
   116    38   159 1   
   117    38   160 1   
   118    39    40 1   
   119    39   161 1   
   120    39   162 1   
   121    40    41 1   
   122    40   163 1   
   123    40   164 1   
   124    41    42 1   
   125    41   165 1   
   126    41   166 1   
   127    42    43 1   
   128    42    44 1   
   129    42   167 1   
   130    43   168 1   
   131    43   169 1   
   132    43   170 1   
   133    44    45 1   
   134    44   171 1   
   135    44   172 1   
   136    45    46 1   
   137    45   173 1   
   138    45   174 1   
   139    46    47 1   
   140    46   175 1   
   141    46   176 1   
   142    47    48 1   
   143    47    49 1   
   144    47   177 1   
   145    48   178 1   
   146    48   179 1   
   147    48   180 1   
   148    49    50 1   
   149    49   181 1   
   150    49   182 1   
   151    50    51 1   
   152    50   183 1   
   153    50   184 1   
   154    51    52 1   
   155    51   185 1   
   156    51   186 1   
   157    52    53 1   
   158    52    54 1   
   159    52   187 1   
   160    53   188 1   
   161    53   189 1   
   162    53   190 1   
   163    54    55 1   
   164    54   191 1   
   165    54   192 1   
   166    55    56 1   
   167    55   193 1   
   168    55   194 1   
   169    56    57 1   
   170    56    58 1   
   171    56   195 1   
   172    57   196 1   
   173    57   197 1   
   174    57   198 1   
   175    58    59 1   
   176    58   199 1   
   177    58   200 1   
   178    59    60 1   
   179    59   201 1   
   180    59   202 1   
   181    60    61 1   
   182    60   203 1   
   183    60   204 1   
   184    61    62 1   
   185    61    63 1   
   186    61   205 1   
   187    62   206 1   
   188    62   207 1   
   189    62   208 1   
   190    63    64 1   
   191    63   209 1   
   192    63   210 1   
   193    64    65 1   
   194    64   211 1   
   195    64   212 1   
   196    65    66 1   
   197    65   213 1   
   198    65   214 1   
   199    66    67 1   
   200    66    68 1   
   201    66   215 1   
   202    67   216 1   
   203    67   217 1   
   204    67   218 1   
   205    68    69 1   
   206    68   219 1   
   207    68   220 1   
   208    69    70 1   
   209    69   221 1   
   210    69   222 1   
   211    70    71 1   
   212    70   223 1   
   213    70   224 1   
   214    71    72 1   
   215    71    73 1   
   216    71   225 1   
   217    72   226 1   
   218    72   227 1   
   219    72   228 1   
   220    73    74 1   
   221    73   229 1   
   222    73   230 1   
   223    74    90 1   
   224    74   231 1   
   225    74   232 1   
   226    75    85 1   
   227    75    90 1   
   228    75   233 1   
   229    75   234 1   
   230    76   235 1   
   231    76   236 1   
   232    76   237 1   
   233    77   238 1   
   234    77   239 1   
   235    77   240 1   
   236    78   241 1   
   237    78   242 1   
   238    78   243 1   
   239    79   244 1   
   240    79   245 1   
   241    79   246 1   
   242    80   247 1   
   243    80   248 1   
   244    80   249 1   
   245    81   250 1   
   246    81   251 1   
   247    81   252 1   
   248    82   253 1   
   249    82   254 1   
   250    82   255 1   
   251    83    84 1   
   252    83   256 1   
   253    83   257 1   
   254    84    91 1   
   255    84   258 1   
   256    84   259 1   
   257    85    86 1   
   258    85    91 1   
   259    85   260 1   
   260    86    92 1   
   261    86   261 1   
   262    86   262 1   
   263    88   263 1   
   264    92   264 1   
@<TRIPOS>SUBSTRUCTURE
     1 TT0         1 TEMP              0 ****  ****    0 ROOT
