@<TRIPOS>MOLECULE
TT1
   42    45     1     0     0
SMALL
abcg2


@<TRIPOS>ATOM
      1 C26         -4.5940    -0.8360     1.4680 ca         1 TT1      -0.086000
      2 C25         -5.8280    -1.3030     1.0430 ca         1 TT1      -0.110000
      3 C24         -6.3690    -0.8360    -0.1460 ca         1 TT1      -0.094000
      4 C23         -5.6750     0.0930    -0.9070 ca         1 TT1      -0.106000
      5 C21         -4.4410     0.5460    -0.4700 ca         1 TT1       0.134000
      6 CL22        -3.5910     1.7000    -1.4450 cl         1 TT1      -0.194000
      7 C20         -3.8790     0.1000     0.7250 ca         1 TT1      -0.081300
      8 C8          -2.5450     0.5780     1.2050 c3         1 TT1       0.109900
      9 S9          -1.2700    -0.3690     0.2980 ss         1 TT1      -0.327300
     10 C10          0.1300     0.5910     0.6710 cc         1 TT1       0.486800
     11 N19          0.2510     1.4720     1.6240 nd         1 TT1      -0.374000
     12 N18          1.5000     1.9890     1.5420 nd         1 TT1      -0.334000
     13 C12          2.1160     1.4040     0.5540 cc         1 TT1       0.462000
     14 C13          3.4980     1.6480     0.1820 cc         1 TT1      -0.269500
     15 C17          4.5750     1.6240     1.0220 cd         1 TT1      -0.085000
     16 C16          5.7870     1.9680     0.3710 cd         1 TT1      -0.136000
     17 C15          5.6080     2.2520    -0.9480 cc         1 TT1      -0.234000
     18 S14          3.9680     2.1190    -1.4110 ss         1 TT1       0.217000
     19 N11          1.2780     0.5070    -0.0460 na         1 TT1      -0.346000
     20 C1           1.5550    -0.4460    -1.1070 c3         1 TT1       0.120900
     21 C2           1.7150    -1.8450    -0.5760 ca         1 TT1      -0.122300
     22 C7           0.8690    -2.8630    -0.9980 ca         1 TT1      -0.085500
     23 C6           1.0230    -4.1540    -0.5090 ca         1 TT1      -0.111000
     24 C5           2.0220    -4.4330     0.4110 ca         1 TT1      -0.096000
     25 C4           2.8730    -3.4190     0.8360 ca         1 TT1      -0.111000
     26 C3           2.7210    -2.1330     0.3430 ca         1 TT1      -0.085500
     27 H26         -4.1710    -1.1980     2.3970 ha         1 TT1       0.122000
     28 H25         -6.3650    -2.0280     1.6400 ha         1 TT1       0.120000
     29 H24         -7.3320    -1.1910    -0.4850 ha         1 TT1       0.119000
     30 H23         -6.0910     0.4620    -1.8350 ha         1 TT1       0.131000
     31 H8          -2.3920     1.6390     1.0140 h1         1 TT1       0.094200
     32 H8A         -2.4290     0.3980     2.2710 h1         1 TT1       0.094200
     33 H17          4.4980     1.3600     2.0670 ha         1 TT1       0.148000
     34 H16          6.7490     1.9950     0.8610 ha         1 TT1       0.139000
     35 H15          6.3540     2.5330    -1.6760 h4         1 TT1       0.153000
     36 H1           0.7470    -0.3930    -1.8400 h1         1 TT1       0.075700
     37 H1A          2.4620    -0.1240    -1.6170 h1         1 TT1       0.075700
     38 H7           0.0830    -2.6500    -1.7130 ha         1 TT1       0.118000
     39 H6           0.3560    -4.9380    -0.8430 ha         1 TT1       0.116000
     40 H5           2.1410    -5.4380     0.7970 ha         1 TT1       0.114000
     41 H4           3.6590    -3.6320     1.5490 ha         1 TT1       0.116000
     42 H3           3.3930    -1.3490     0.6740 ha         1 TT1       0.118000
@<TRIPOS>BOND
     1     1     2 ar  
     2     1     7 ar  
     3     1    27 1   
     4     2     3 ar  
     5     2    28 1   
     6     3     4 ar  
     7     3    29 1   
     8     4     5 ar  
     9     4    30 1   
    10     5     6 1   
    11     5     7 ar  
    12     7     8 1   
    13     8     9 1   
    14     8    31 1   
    15     8    32 1   
    16     9    10 1   
    17    10    11 2   
    18    10    19 1   
    19    11    12 1   
    20    12    13 2   
    21    13    14 1   
    22    13    19 1   
    23    14    15 2   
    24    14    18 1   
    25    15    16 1   
    26    15    33 1   
    27    16    17 2   
    28    16    34 1   
    29    17    18 1   
    30    17    35 1   
    31    19    20 1   
    32    20    21 1   
    33    20    36 1   
    34    20    37 1   
    35    21    22 ar  
    36    21    26 ar  
    37    22    23 ar  
    38    22    38 1   
    39    23    24 ar  
    40    23    39 1   
    41    24    25 ar  
    42    24    40 1   
    43    25    26 ar  
    44    25    41 1   
    45    26    42 1   
@<TRIPOS>SUBSTRUCTURE
     1 TT1         1 TEMP              0 ****  ****    0 ROOT
