@<TRIPOS>MOLECULE
TT1
   42    45     1     0     0
SMALL
No Charge or Current Charge


@<TRIPOS>ATOM
      1 C26         -4.6440    -0.6270     1.7470 ca         1 TT1      -0.086000
      2 C25         -5.9480    -1.1260     1.5870 ca         1 TT1      -0.110000
      3 C24         -6.7760    -0.6200     0.5720 ca         1 TT1      -0.094000
      4 C23         -6.2970     0.3860    -0.2840 ca         1 TT1      -0.106000
      5 C21         -4.9930     0.8880    -0.1270 ca         1 TT1       0.134000
      6 Cl22        -4.4380     2.1470    -1.2320 cl         1 TT1      -0.194000
      7 C20         -4.1560     0.3850     0.8950 ca         1 TT1      -0.081300
      8 C8          -2.7360     0.9060     1.0900 c3         1 TT1       0.109900
      9 S9          -1.5600     0.0200    -0.0290 ss         1 TT1      -0.327300
     10 C10         -0.0260     0.7890     0.3620 cc         1 TT1       0.486800
     11 N19          0.1250     1.7400     1.2550 nd         1 TT1      -0.374000
     12 N18          1.4670     2.0310     1.2720 nd         1 TT1      -0.334000
     13 C12          2.0900     1.2420     0.3980 cc         1 TT1       0.462000
     14 C13          3.5160     1.2270     0.1580 cc         1 TT1      -0.269500
     15 C17          4.3700     2.0750     0.8260 cd         1 TT1      -0.085000
     16 C16          5.7340     1.9040     0.4670 cd         1 TT1      -0.136000
     17 C15          5.9350     0.9250    -0.4720 cc         1 TT1      -0.234000
     18 S14          4.4130     0.1770    -0.9400 ss         1 TT1       0.217000
     19 N11          1.1540     0.4300    -0.2320 na         1 TT1      -0.346000
     20 C1           1.3280    -0.5810    -1.2960 c3         1 TT1       0.120900
     21 C2           1.8540    -1.9370    -0.8240 ca         1 TT1      -0.122300
     22 C7           2.5210    -2.7710    -1.7440 ca         1 TT1      -0.085500
     23 C6           3.0210    -4.0220    -1.3410 ca         1 TT1      -0.111000
     24 C5           2.8540    -4.4520    -0.0150 ca         1 TT1      -0.096000
     25 C4           2.1840    -3.6320     0.9070 ca         1 TT1      -0.111000
     26 C3           1.6840    -2.3810     0.5070 ca         1 TT1      -0.085500
     27 H26         -4.0110    -1.0290     2.5350 ha         1 TT1       0.122000
     28 H25         -6.3160    -1.9070     2.2490 ha         1 TT1       0.120000
     29 H24         -7.7850    -1.0070     0.4470 ha         1 TT1       0.119000
     30 H23         -6.9350     0.7770    -1.0720 ha         1 TT1       0.131000
     31 H8          -2.6930     1.9850     0.8900 h1         1 TT1       0.094200
     32 H8A         -2.4230     0.7520     2.1310 h1         1 TT1       0.094200
     33 H17          4.0450     2.8090     1.5600 ha         1 TT1       0.148000
     34 H16          6.5400     2.4910     0.8970 ha         1 TT1       0.139000
     35 H15          6.8590     0.5850    -0.9220 h4         1 TT1       0.153000
     36 H1           0.3640    -0.7470    -1.7930 h1         1 TT1       0.075700
     37 H1A          1.9860    -0.1690    -2.0710 h1         1 TT1       0.075700
     38 H7           2.6560    -2.4490    -2.7740 ha         1 TT1       0.118000
     39 H6           3.5370    -4.6570    -2.0580 ha         1 TT1       0.116000
     40 H5           3.2410    -5.4210     0.2960 ha         1 TT1       0.114000
     41 H4           2.0510    -3.9670     1.9340 ha         1 TT1       0.116000
     42 H3           1.1640    -1.7660     1.2370 ha         1 TT1       0.118000
@<TRIPOS>BOND
     1     1     2 ar  
     2     1     7 ar  
     3     1    27 1   
     4     2     3 ar  
     5     2    28 1   
     6     3     4 ar  
     7     3    29 1   
     8     4     5 ar  
     9     4    30 1   
    10     5     6 1   
    11     5     7 ar  
    12     7     8 1   
    13     8     9 1   
    14     8    31 1   
    15     8    32 1   
    16     9    10 1   
    17    10    11 2   
    18    10    19 1   
    19    11    12 1   
    20    12    13 2   
    21    13    14 1   
    22    13    19 1   
    23    14    15 2   
    24    14    18 1   
    25    15    16 1   
    26    15    33 1   
    27    16    17 2   
    28    16    34 1   
    29    17    18 1   
    30    17    35 1   
    31    19    20 1   
    32    20    21 1   
    33    20    36 1   
    34    20    37 1   
    35    21    22 ar  
    36    21    26 ar  
    37    22    23 ar  
    38    22    38 1   
    39    23    24 ar  
    40    23    39 1   
    41    24    25 ar  
    42    24    40 1   
    43    25    26 ar  
    44    25    41 1   
    45    26    42 1   
@<TRIPOS>SUBSTRUCTURE
     1 TT1         1 TEMP              0 ****  ****    0 ROOT
