@<TRIPOS>MOLECULE
TT2
   90    95     1     0     0
SMALL
No Charge or Current Charge


@<TRIPOS>ATOM
      1 C17          0.1220     3.5870     0.1200 c5         1 TT2      -0.050700
      2 C1           7.1290    -0.9410     1.0500 c6         1 TT2       0.211500
      3 C4           6.4630    -1.9980    -1.6710 c6         1 TT2      -0.031700
      4 C20         -1.0480     3.9000     1.1100 c3         1 TT2      -0.018500
      5 C12         -0.4990     1.2610    -1.0050 c6         1 TT2      -0.062400
      6 C2           7.7940    -2.1850     0.4800 c2         1 TT2      -0.199400
      7 C3           6.9270    -2.9410    -0.5360 c6         1 TT2       0.211500
      8 C16          1.5000     4.2250     0.5440 c5         1 TT2      -0.074400
      9 C11          0.0920    -0.1070    -1.4460 c6         1 TT2      -0.071400
     10 C28          9.0340    -2.5410     0.8660 c2         1 TT2      -0.299000
     11 C22         -2.3440     3.2130     0.7320 c2         1 TT2      -0.209200
     12 C23         -3.0260     2.3610     1.5140 c2         1 TT2      -0.220200
     13 C21         -1.3100     5.4150     1.2670 c3         1 TT2      -0.085100
     14 C36         -7.2900    -2.9750     0.5460 c6         1 TT2      -0.068400
     15 C24         -4.2680     1.5980     1.0940 c3         1 TT2      -0.072200
     16 C35         -7.6620    -1.4790     0.3390 c6         1 TT2      -0.059033
     17 C31         -5.8910    -3.2560    -0.0710 c6         1 TT2      -0.059033
     18 C8           2.4220     0.9870    -1.3800 c2         1 TT2      -0.081400
     19 C7           3.7490     0.7830    -1.1510 ce         1 TT2      -0.184000
     20 C14          1.7960     2.3380    -0.9670 c5         1 TT2      -0.035500
     21 C9           1.4830     0.0260    -2.1220 c6         1 TT2      -0.041200
     22 C6           4.5180    -0.4090    -1.5630 ce         1 TT2      -0.161000
     23 C15          2.6060     3.2730    -0.0210 c5         1 TT2      -0.070400
     24 C5           5.7510    -0.7640    -1.1200 c2         1 TT2      -0.107400
     25 C13          0.5030     2.0750    -0.1240 c5         1 TT2      -0.035000
     26 C10          6.5740    -0.0120    -0.0650 c6         1 TT2      -0.031700
     27 C30         -4.8320    -2.3550     0.6270 c6         1 TT2      -0.062400
     28 C29         -5.1740    -0.8310     0.4470 c6         1 TT2      -0.073000
     29 C32         -5.9170    -2.9370    -1.5910 c6         1 TT2      -0.068400
     30 C34         -5.2270    -0.5430    -1.0970 c6         1 TT2      -0.062400
     31 C33         -6.2860    -1.4420    -1.7990 c6         1 TT2      -0.059033
     32 C37         -6.6040    -0.5780     1.0420 c6         1 TT2      -0.062400
     33 C25         -4.0690     0.0550     1.1510 c3         1 TT2       0.175300
     34 C38         -7.6870    -1.1610    -1.1840 c6         1 TT2      -0.068400
     35 O3          -3.9000    -0.3120     2.5290 oh         1 TT2      -0.654000
     36 O1           6.0890    -1.3440     1.9430 oh         1 TT2      -0.652500
     37 H17         -0.1900     4.0330    -0.8340 hc         1 TT2       0.043700
     38 H1           7.8770    -0.3620     1.6130 h1         1 TT2       0.041700
     39 H4           7.3330    -1.6780    -2.2600 hc         1 TT2       0.058200
     40 H4A          5.8100    -2.5500    -2.3590 hc         1 TT2       0.058200
     41 H20         -0.7490     3.5410     2.1030 hc         1 TT2       0.053700
     42 H12         -0.7660     1.8430    -1.8980 hc         1 TT2       0.040200
     43 H12A        -1.4360     1.0780    -0.4680 hc         1 TT2       0.040200
     44 H3           6.0270    -3.2960    -0.0120 h1         1 TT2       0.041700
     45 H16          1.6010     5.2390     0.1420 hc         1 TT2       0.040200
     46 H16A         1.5940     4.3120     1.6330 hc         1 TT2       0.040200
     47 H11          0.1700    -0.7760    -0.5790 hc         1 TT2       0.041200
     48 H11A        -0.6050    -0.6020    -2.1370 hc         1 TT2       0.041200
     49 H28          9.5820    -1.9450     1.5950 ha         1 TT2       0.167000
     50 H28A         9.5520    -3.4160     0.4760 ha         1 TT2       0.167000
     51 H22         -2.6870     3.4270    -0.2820 ha         1 TT2       0.163000
     52 H23         -2.6740     2.1340     2.5230 ha         1 TT2       0.176000
     53 H21         -2.1320     5.5910     1.9710 hc         1 TT2       0.033700
     54 H21A        -0.4240     5.9340     1.6510 hc         1 TT2       0.033700
     55 H21B        -1.5820     5.8650     0.3040 hc         1 TT2       0.033700
     56 H36         -7.2900    -3.2220     1.6170 hc         1 TT2       0.039533
     57 H36A        -8.0470    -3.6220     0.0790 hc         1 TT2       0.039533
     58 H24         -5.1130     1.8860     1.7320 hc         1 TT2       0.048200
     59 H24A        -4.5400     1.9020     0.0780 hc         1 TT2       0.048200
     60 H35         -8.6540    -1.2850     0.7700 hc         1 TT2       0.048367
     61 H31         -5.6290    -4.3120     0.0770 hc         1 TT2       0.048367
     62 H7           4.3360     1.5520    -0.6600 ha         1 TT2       0.172000
     63 H14          1.5530     2.8830    -1.8880 hc         1 TT2       0.050700
     64 H9           1.9120    -0.9780    -2.2150 hc         1 TT2       0.044700
     65 H9A          1.3470     0.3970    -3.1470 hc         1 TT2       0.044700
     66 H6           4.0490    -1.0410    -2.3150 ha         1 TT2       0.167000
     67 H15          3.3880     3.8240    -0.5550 hc         1 TT2       0.044200
     68 H15A         3.0950     2.7290     0.7950 hc         1 TT2       0.044200
     69 H10          6.0060     0.7940     0.4110 hc         1 TT2       0.058200
     70 H10A         7.4200     0.4750    -0.5680 hc         1 TT2       0.058200
     71 H30         -4.7860    -2.6220     1.6910 hc         1 TT2       0.041033
     72 H30A        -3.8350    -2.5690     0.2170 hc         1 TT2       0.041033
     73 H32         -4.9390    -3.1530    -2.0420 hc         1 TT2       0.039533
     74 H32A        -6.6450    -3.5820    -2.1020 hc         1 TT2       0.039533
     75 H34         -5.4830     0.5050    -1.2960 hc         1 TT2       0.041033
     76 H34A        -4.2390    -0.7080    -1.5490 hc         1 TT2       0.041033
     77 H33         -6.3050    -1.2160    -2.8740 hc         1 TT2       0.048367
     78 H37         -6.8910     0.4760     0.9200 hc         1 TT2       0.041033
     79 H37A        -6.6150    -0.7770     2.1220 hc         1 TT2       0.041033
     80 H25         -3.1330    -0.1580     0.6150 h1         1 TT2       0.073700
     81 H38         -8.4500    -1.7700    -1.6860 hc         1 TT2       0.039533
     82 H38A        -7.9700    -0.1120    -1.3480 hc         1 TT2       0.039533
     83 HO3         -4.7630    -0.1600     2.9660 ho         1 TT2       0.436000
     84 HO1          6.5010    -1.9890     2.5570 ho         1 TT2       0.441000
     85 C18          0.7320     1.2910     1.2180 c3         1 TT2      -0.082100
     86 O2           7.6240    -4.0620    -1.0870 oh         1 TT2      -0.652500
     87 H18         -0.2230     1.0040     1.6720 hc         1 TT2       0.037367
     88 H18A         1.3110     0.3730     1.0680 hc         1 TT2       0.037367
     89 H18B         1.2680     1.8800     1.9700 hc         1 TT2       0.037367
     90 HO2          7.8870    -4.6140    -0.3200 ho         1 TT2       0.441000
@<TRIPOS>BOND
     1     1     4 1   
     2     1     8 1   
     3     1    25 1   
     4     1    37 1   
     5     2     6 1   
     6     2    26 1   
     7     2    36 1   
     8     2    38 1   
     9     3     7 1   
    10     3    24 1   
    11     3    39 1   
    12     3    40 1   
    13     4    11 1   
    14     4    13 1   
    15     4    41 1   
    16     5     9 1   
    17     5    25 1   
    18     5    42 1   
    19     5    43 1   
    20     6     7 1   
    21     6    10 2   
    22     7    44 1   
    23     7    86 1   
    24     8    23 1   
    25     8    45 1   
    26     8    46 1   
    27     9    21 1   
    28     9    47 1   
    29     9    48 1   
    30    10    49 1   
    31    10    50 1   
    32    11    12 2   
    33    11    51 1   
    34    12    15 1   
    35    12    52 1   
    36    13    53 1   
    37    13    54 1   
    38    13    55 1   
    39    14    16 1   
    40    14    17 1   
    41    14    56 1   
    42    14    57 1   
    43    15    33 1   
    44    15    58 1   
    45    15    59 1   
    46    16    32 1   
    47    16    34 1   
    48    16    60 1   
    49    17    27 1   
    50    17    29 1   
    51    17    61 1   
    52    18    19 2   
    53    18    20 1   
    54    18    21 1   
    55    19    22 1   
    56    19    62 1   
    57    20    23 1   
    58    20    25 1   
    59    20    63 1   
    60    21    64 1   
    61    21    65 1   
    62    22    24 2   
    63    22    66 1   
    64    23    67 1   
    65    23    68 1   
    66    24    26 1   
    67    25    85 1   
    68    26    69 1   
    69    26    70 1   
    70    27    28 1   
    71    27    71 1   
    72    27    72 1   
    73    28    30 1   
    74    28    32 1   
    75    28    33 1   
    76    29    31 1   
    77    29    73 1   
    78    29    74 1   
    79    30    31 1   
    80    30    75 1   
    81    30    76 1   
    82    31    34 1   
    83    31    77 1   
    84    32    78 1   
    85    32    79 1   
    86    33    35 1   
    87    33    80 1   
    88    34    81 1   
    89    34    82 1   
    90    35    83 1   
    91    36    84 1   
    92    85    87 1   
    93    85    88 1   
    94    85    89 1   
    95    86    90 1   
@<TRIPOS>SUBSTRUCTURE
     1 TT2         1 TEMP              0 ****  ****    0 ROOT
