@<TRIPOS>MOLECULE
TT2
   90    95     1     0     0
SMALL
abcg2


@<TRIPOS>ATOM
      1 C17          0.0700     3.5670     0.0380 c5         1 TT2      -0.050700
      2 C1           6.8340    -0.9260     1.1830 c6         1 TT2       0.211500
      3 C4           6.2690    -2.0810    -1.4700 c6         1 TT2      -0.031700
      4 C20         -1.0080     3.7690     1.1100 c3         1 TT2      -0.018500
      5 C12         -0.4210     1.3350    -1.2070 c6         1 TT2      -0.062400
      6 C2           7.4550    -2.2120     0.6980 c2         1 TT2      -0.199400
      7 C3           6.6040    -2.9850    -0.2790 c6         1 TT2       0.211500
      8 C16          1.3950     4.2910     0.3840 c5         1 TT2      -0.074400
      9 C11          0.2450     0.0630    -1.7340 c6         1 TT2      -0.071400
     10 C28          8.6740    -2.5820     1.0750 c2         1 TT2      -0.299000
     11 C22         -2.2770     3.0480     0.7720 c2         1 TT2      -0.209200
     12 C23         -2.8960     2.1740     1.5590 c2         1 TT2      -0.220200
     13 C21         -1.3080     5.2610     1.2930 c3         1 TT2      -0.085100
     14 C36         -7.0460    -3.0430     0.5650 c6         1 TT2      -0.068400
     15 C24         -4.1380     1.4260     1.1860 c3         1 TT2      -0.072200
     16 C35         -7.4450    -1.5670     0.5490 c6         1 TT2      -0.059033
     17 C31         -5.7440    -3.2260    -0.2160 c6         1 TT2      -0.059033
     18 C8           2.4980     1.1510    -1.5000 c2         1 TT2      -0.081400
     19 C7           3.7330     0.8070    -1.1010 ce         1 TT2      -0.184000
     20 C14          1.8180     2.4110    -1.0660 c5         1 TT2      -0.035500
     21 C9           1.6040     0.3330    -2.3920 c6         1 TT2      -0.041200
     22 C6           4.4460    -0.4060    -1.4590 ce         1 TT2      -0.161000
     23 C15          2.5390     3.4520    -0.2210 c5         1 TT2      -0.070400
     24 C5           5.6500    -0.7920    -1.0080 c2         1 TT2      -0.107400
     25 C13          0.5100     2.1230    -0.2860 c5         1 TT2      -0.035000
     26 C10          6.4880    -0.0420    -0.0150 c6         1 TT2      -0.031700
     27 C30         -4.6450    -2.3880     0.4400 c6         1 TT2      -0.062400
     28 C29         -5.0190    -0.8950     0.4420 c6         1 TT2      -0.073000
     29 C32         -5.9440    -2.7730    -1.6630 c6         1 TT2      -0.068400
     30 C34         -5.2370    -0.4620    -1.0160 c6         1 TT2      -0.062400
     31 C33         -6.3390    -1.2970    -1.6750 c6         1 TT2      -0.059033
     32 C37         -6.3430    -0.7300     1.2040 c6         1 TT2      -0.062400
     33 C25         -3.8700    -0.0810     1.0710 c3         1 TT2       0.175300
     34 C38         -7.6430    -1.1100    -0.8970 c6         1 TT2      -0.068400
     35 O3          -3.4630    -0.5950     2.3250 oh         1 TT2      -0.654000
     36 O1           5.6360    -1.1630     1.8950 oh         1 TT2      -0.652500
     37 H17         -0.3210     3.9910    -0.8980 hc         1 TT2       0.043700
     38 H1           7.5620    -0.3950     1.8110 h1         1 TT2       0.041700
     39 H4           7.2020    -1.8720    -2.0100 hc         1 TT2       0.058200
     40 H4A          5.6010    -2.6080    -2.1550 hc         1 TT2       0.058200
     41 H20         -0.6290     3.3810     2.0630 hc         1 TT2       0.053700
     42 H12         -0.7020     1.9700    -2.0560 hc         1 TT2       0.040200
     43 H12A        -1.3500     1.0760    -0.6940 hc         1 TT2       0.040200
     44 H3           5.6570    -3.2350     0.2200 h1         1 TT2       0.041700
     45 H16          1.3950     5.3110    -0.0030 hc         1 TT2       0.040200
     46 H16A         1.5130     4.3760     1.4680 hc         1 TT2       0.040200
     47 H11          0.3780    -0.6550    -0.9210 hc         1 TT2       0.041200
     48 H11A        -0.4140    -0.4210    -2.4590 hc         1 TT2       0.041200
     49 H28          9.2460    -1.9810     1.7710 ha         1 TT2       0.167000
     50 H28A         9.1550    -3.4810     0.7100 ha         1 TT2       0.167000
     51 H22         -2.7100     3.2870    -0.2000 ha         1 TT2       0.163000
     52 H23         -2.4570     1.9380     2.5260 ha         1 TT2       0.176000
     53 H21         -2.0710     5.4120     2.0580 hc         1 TT2       0.033700
     54 H21A        -0.4210     5.8200     1.5970 hc         1 TT2       0.033700
     55 H21B        -1.6770     5.7020     0.3640 hc         1 TT2       0.033700
     56 H36         -6.9140    -3.3860     1.5970 hc         1 TT2       0.039533
     57 H36A        -7.8420    -3.6560     0.1300 hc         1 TT2       0.039533
     58 H24         -4.9200     1.5950     1.9360 hc         1 TT2       0.048200
     59 H24A        -4.5290     1.8140     0.2440 hc         1 TT2       0.048200
     60 H35         -8.3760    -1.4310     1.1090 hc         1 TT2       0.048367
     61 H31         -5.4490    -4.2800    -0.1980 hc         1 TT2       0.048367
     62 H7           4.2530     1.4990    -0.4490 ha         1 TT2       0.172000
     63 H14          1.4920     2.9170    -1.9890 hc         1 TT2       0.050700
     64 H9           2.0610    -0.6110    -2.6870 hc         1 TT2       0.044700
     65 H9A          1.4350     0.8990    -3.3170 hc         1 TT2       0.044700
     66 H6           3.9570    -1.0720    -2.1630 ha         1 TT2       0.167000
     67 H15          3.2290     4.0520    -0.8170 hc         1 TT2       0.044200
     68 H15A         3.1320     2.9870     0.5690 hc         1 TT2       0.044200
     69 H10          6.0090     0.8710     0.3360 hc         1 TT2       0.058200
     70 H10A         7.4310     0.2560    -0.4850 hc         1 TT2       0.058200
     71 H30         -4.4870    -2.7360     1.4640 hc         1 TT2       0.041033
     72 H30A        -3.6960    -2.5330    -0.0910 hc         1 TT2       0.041033
     73 H32         -5.0240    -2.9230    -2.2370 hc         1 TT2       0.039533
     74 H32A        -6.7200    -3.3770    -2.1460 hc         1 TT2       0.039533
     75 H34         -5.5140     0.5950    -1.0720 hc         1 TT2       0.041033
     76 H34A        -4.3000    -0.5650    -1.5770 hc         1 TT2       0.041033
     77 H33         -6.4750    -0.9600    -2.7070 hc         1 TT2       0.048367
     78 H37         -6.6460     0.3220     1.2220 hc         1 TT2       0.041033
     79 H37A        -6.2260    -1.0430     2.2490 hc         1 TT2       0.041033
     80 H25         -2.9980    -0.2120     0.4170 h1         1 TT2       0.073700
     81 H38         -8.4480    -1.6870    -1.3660 hc         1 TT2       0.039533
     82 H38A        -7.9520    -0.0600    -0.9230 hc         1 TT2       0.039533
     83 HO3         -4.1670    -0.4330     2.9620 ho         1 TT2       0.436000
     84 HO1          5.8480    -1.7120     2.6570 ho         1 TT2       0.441000
     85 C18          0.7910     1.3320     0.9930 c3         1 TT2      -0.082100
     86 O2           7.2200    -4.1460    -0.7740 oh         1 TT2      -0.652500
     87 H18         -0.1420     1.0670     1.4940 hc         1 TT2       0.037367
     88 H18A         1.3220     0.4030     0.7840 hc         1 TT2       0.037367
     89 H18B         1.3990     1.8920     1.7060 hc         1 TT2       0.037367
     90 HO2          7.3070    -4.7770    -0.0520 ho         1 TT2       0.441000
@<TRIPOS>BOND
     1     1     4 1   
     2     1     8 1   
     3     1    25 1   
     4     1    37 1   
     5     2     6 1   
     6     2    26 1   
     7     2    36 1   
     8     2    38 1   
     9     3     7 1   
    10     3    24 1   
    11     3    39 1   
    12     3    40 1   
    13     4    11 1   
    14     4    13 1   
    15     4    41 1   
    16     5     9 1   
    17     5    25 1   
    18     5    42 1   
    19     5    43 1   
    20     6     7 1   
    21     6    10 2   
    22     7    44 1   
    23     7    86 1   
    24     8    23 1   
    25     8    45 1   
    26     8    46 1   
    27     9    21 1   
    28     9    47 1   
    29     9    48 1   
    30    10    49 1   
    31    10    50 1   
    32    11    12 2   
    33    11    51 1   
    34    12    15 1   
    35    12    52 1   
    36    13    53 1   
    37    13    54 1   
    38    13    55 1   
    39    14    16 1   
    40    14    17 1   
    41    14    56 1   
    42    14    57 1   
    43    15    33 1   
    44    15    58 1   
    45    15    59 1   
    46    16    32 1   
    47    16    34 1   
    48    16    60 1   
    49    17    27 1   
    50    17    29 1   
    51    17    61 1   
    52    18    19 2   
    53    18    20 1   
    54    18    21 1   
    55    19    22 1   
    56    19    62 1   
    57    20    23 1   
    58    20    25 1   
    59    20    63 1   
    60    21    64 1   
    61    21    65 1   
    62    22    24 2   
    63    22    66 1   
    64    23    67 1   
    65    23    68 1   
    66    24    26 1   
    67    25    85 1   
    68    26    69 1   
    69    26    70 1   
    70    27    28 1   
    71    27    71 1   
    72    27    72 1   
    73    28    30 1   
    74    28    32 1   
    75    28    33 1   
    76    29    31 1   
    77    29    73 1   
    78    29    74 1   
    79    30    31 1   
    80    30    75 1   
    81    30    76 1   
    82    31    34 1   
    83    31    77 1   
    84    32    78 1   
    85    32    79 1   
    86    33    35 1   
    87    33    80 1   
    88    34    81 1   
    89    34    82 1   
    90    35    83 1   
    91    36    84 1   
    92    85    87 1   
    93    85    88 1   
    94    85    89 1   
    95    86    90 1   
@<TRIPOS>SUBSTRUCTURE
     1 TT2         1 TEMP              0 ****  ****    0 ROOT
