@<TRIPOS>MOLECULE
TT3
   26    26     1     0     0
SMALL
abcg2


@<TRIPOS>ATOM
      1 C4           2.0120    -2.0450   -51.8820 ca         1 TT3       0.151100
      2 C5           2.9590    -2.8180   -51.2030 ca         1 TT3      -0.159000
      3 C6           2.6320    -4.0970   -50.7830 ca         1 TT3      -0.055000
      4 C7           1.3670    -4.6340   -51.0250 ca         1 TT3      -0.181000
      5 C8           0.4610    -3.8400   -51.6970 ca         1 TT3       0.202000
      6 N            2.3310    -0.9770   -55.1770 n          1 TT3      -0.400800
      7 C            3.7340    -0.7940   -54.8230 c3         1 TT3       0.088300
      8 O            0.1270    -0.5320   -54.8760 o          1 TT3      -0.606100
      9 C1           2.0920    -1.6060   -56.4690 c3         1 TT3       0.088300
     10 C2           1.2890    -0.5300   -54.4550 c          1 TT3       0.567100
     11 C3           1.5520     0.0050   -53.0440 c3         1 TT3       0.080600
     12 C9           0.7410    -2.5570   -52.1400 ca         1 TT3      -0.225000
     13 F           -0.7810    -4.3320   -51.9450 f          1 TT3      -0.181000
     14 O1           2.4170    -0.7970   -52.2460 os         1 TT3      -0.345100
     15 H1           3.9390    -2.4000   -51.0160 ha         1 TT3       0.129000
     16 H2           3.3700    -4.6900   -50.2600 ha         1 TT3       0.119000
     17 H3           1.0960    -5.6300   -50.7050 ha         1 TT3       0.135000
     18 H4           3.8510    -0.0560   -54.0380 h1         1 TT3       0.046033
     19 H5           4.1790    -1.7360   -54.4950 h1         1 TT3       0.046033
     20 H6           4.2690    -0.4450   -55.7080 h1         1 TT3       0.046033
     21 H7           1.0690    -1.9660   -56.5160 h1         1 TT3       0.046033
     22 H8           2.2590    -0.8960   -57.2840 h1         1 TT3       0.046033
     23 H9           2.7820    -2.4420   -56.5870 h1         1 TT3       0.046033
     24 H10          2.0340     0.9810   -53.1000 h1         1 TT3       0.081700
     25 H11          0.5810     0.1280   -52.5650 h1         1 TT3       0.081700
     26 H12         -0.0200    -2.0020   -52.6670 ha         1 TT3       0.153000
@<TRIPOS>BOND
     1     1     2 ar  
     2     1    12 ar  
     3     1    14 1   
     4     2     3 ar  
     5     2    15 1   
     6     3     4 ar  
     7     3    16 1   
     8     4     5 ar  
     9     4    17 1   
    10     5    12 ar  
    11     5    13 1   
    12     6     7 1   
    13     6     9 1   
    14     6    10 1   
    15     7    18 1   
    16     7    19 1   
    17     7    20 1   
    18     8    10 2   
    19     9    21 1   
    20     9    22 1   
    21     9    23 1   
    22    10    11 1   
    23    11    14 1   
    24    11    24 1   
    25    11    25 1   
    26    12    26 1   
@<TRIPOS>SUBSTRUCTURE
     1 TT3         1 TEMP              0 ****  ****    0 ROOT
