@<TRIPOS>MOLECULE
TT3
   26    26     1     0     0
SMALL
No Charge or Current Charge


@<TRIPOS>ATOM
      1 C4           1.9800    -2.0990   -51.8170 ca         1 TT3       0.151100
      2 C5           2.9440    -2.9280   -51.2210 ca         1 TT3      -0.159000
      3 C6           2.6070    -4.2230   -50.7910 ca         1 TT3      -0.055000
      4 C7           1.2920    -4.6890   -50.9540 ca         1 TT3      -0.181000
      5 C8           0.3250    -3.8600   -51.5420 ca         1 TT3       0.202000
      6 N            2.4020    -0.9400   -55.2720 n          1 TT3      -0.400800
      7 C            3.8040    -0.6750   -54.8700 c3         1 TT3       0.088300
      8 O            0.1560    -0.6930   -54.8830 o          1 TT3      -0.606100
      9 C1           2.1770    -1.5480   -56.6040 c3         1 TT3       0.088300
     10 C2           1.3010    -0.5640   -54.4620 c          1 TT3       0.567100
     11 C3           1.5560     0.0220   -53.0470 c3         1 TT3       0.080600
     12 C9           0.6590    -2.5680   -51.9730 ca         1 TT3      -0.225000
     13 F           -0.9390    -4.3090   -51.6930 f          1 TT3      -0.181000
     14 O1           2.3770    -0.8400   -52.2180 os         1 TT3      -0.345100
     15 H1           3.9610    -2.5650   -51.0960 ha         1 TT3       0.129000
     16 H2           3.3600    -4.8610   -50.3330 ha         1 TT3       0.119000
     17 H3           1.0200    -5.6890   -50.6250 ha         1 TT3       0.135000
     18 H4           3.8950     0.3320   -54.4440 h1         1 TT3       0.046033
     19 H5           4.1220    -1.4150   -54.1250 h1         1 TT3       0.046033
     20 H6           4.4710    -0.7410   -55.7390 h1         1 TT3       0.046033
     21 H7           1.4390    -2.3560   -56.5250 h1         1 TT3       0.046033
     22 H8           1.8030    -0.7860   -57.2990 h1         1 TT3       0.046033
     23 H9           3.1100    -1.9670   -57.0010 h1         1 TT3       0.046033
     24 H10          2.0520     0.9890   -53.1870 h1         1 TT3       0.081700
     25 H11          0.5870     0.2190   -52.5720 h1         1 TT3       0.081700
     26 H12         -0.1180    -1.9520   -52.4130 ha         1 TT3       0.153000
@<TRIPOS>BOND
     1     1     2 ar  
     2     1    12 ar  
     3     1    14 1   
     4     2     3 ar  
     5     2    15 1   
     6     3     4 ar  
     7     3    16 1   
     8     4     5 ar  
     9     4    17 1   
    10     5    12 ar  
    11     5    13 1   
    12     6     7 1   
    13     6     9 1   
    14     6    10 1   
    15     7    18 1   
    16     7    19 1   
    17     7    20 1   
    18     8    10 2   
    19     9    21 1   
    20     9    22 1   
    21     9    23 1   
    22    10    11 1   
    23    11    14 1   
    24    11    24 1   
    25    11    25 1   
    26    12    26 1   
@<TRIPOS>SUBSTRUCTURE
     1 TT3         1 TEMP              0 ****  ****    0 ROOT
