@<TRIPOS>MOLECULE
TT4
   22    23     1     0     0
SMALL
No Charge or Current Charge


@<TRIPOS>ATOM
      1 CAF         -1.5570    -1.1450    -0.6910 ca         1 TT4      -0.119500
      2 CAD         -2.9580    -1.2400    -0.6240 ca         1 TT4      -0.099000
      3 CAC         -3.6860    -0.3470     0.1800 ca         1 TT4      -0.117000
      4 CAE         -3.0120     0.6390     0.9200 ca         1 TT4      -0.099000
      5 CAG         -1.6110     0.7350     0.8530 ca         1 TT4      -0.119500
      6 CAK         -0.8740    -0.1540     0.0430 ca         1 TT4       0.029800
      7 NAM          0.5200    -0.0640    -0.0280 na         1 TT4      -0.014500
      8 NAI          1.3210    -1.1140     0.2760 nc         1 TT4      -0.619800
      9 CAJ          2.4750    -0.5120     0.1130 cd         1 TT4       0.834900
     10 NAA          3.6010    -1.1460     0.3150 nv         1 TT4      -1.100900
     11 NAH          2.5180     0.7990    -0.2340 nd         1 TT4      -0.812000
     12 CAL          1.2540     1.0660    -0.3100 cc         1 TT4       0.699400
     13 NAB          0.7920     2.2670    -0.6800 nv         1 TT4      -1.031900
     14 H1          -0.9990    -1.8410    -1.3150 ha         1 TT4       0.134500
     15 H2          -3.4790    -2.0060    -1.1950 ha         1 TT4       0.116500
     16 H3          -4.7700    -0.4210     0.2320 ha         1 TT4       0.116000
     17 H4          -3.5750     1.3280     1.5460 ha         1 TT4       0.116500
     18 H5          -1.0990     1.4970     1.4370 ha         1 TT4       0.134500
     19 H6           3.5090    -1.9590     0.9080 hn         1 TT4       0.501000
     20 H7           4.3840    -0.5390     0.5150 hn         1 TT4       0.501000
     21 H8          -0.1500     2.2940    -1.0520 hn         1 TT4       0.474000
     22 H9           1.4690     2.8780    -1.1200 hn         1 TT4       0.474000
@<TRIPOS>BOND
     1     1     2 ar  
     2     1     6 ar  
     3     1    14 1   
     4     2     3 ar  
     5     2    15 1   
     6     3     4 ar  
     7     3    16 1   
     8     4     5 ar  
     9     4    17 1   
    10     5     6 ar  
    11     5    18 1   
    12     6     7 1   
    13     7     8 1   
    14     7    12 1   
    15     8     9 2   
    16     9    10 1   
    17     9    11 1   
    18    10    19 1   
    19    10    20 1   
    20    11    12 2   
    21    12    13 1   
    22    13    21 1   
    23    13    22 1   
@<TRIPOS>SUBSTRUCTURE
     1 TT4         1 TEMP              0 ****  ****    0 ROOT
