@<TRIPOS>MOLECULE
TT4
   22    23     1     0     0
SMALL
abcg2


@<TRIPOS>ATOM
      1 CAF         -1.4950    -1.2460    -0.4340 ca         1 TT4      -0.119500
      2 CAD         -2.8730    -1.3930    -0.4230 ca         1 TT4      -0.099000
      3 CAC         -3.6880    -0.3900     0.0880 ca         1 TT4      -0.117000
      4 CAE         -3.1090     0.7600     0.6050 ca         1 TT4      -0.099000
      5 CAG         -1.7290     0.9120     0.6170 ca         1 TT4      -0.119500
      6 CAK         -0.9190    -0.0860     0.0790 ca         1 TT4       0.029800
      7 NAM          0.4750     0.0480     0.0730 na         1 TT4      -0.014500
      8 NAI          1.2830    -1.0550     0.2350 nc         1 TT4      -0.619800
      9 CAJ          2.4830    -0.5380     0.1220 cd         1 TT4       0.834900
     10 NAA          3.6170    -1.2600     0.2310 nv         1 TT4      -1.100900
     11 NAH          2.5200     0.7990    -0.1180 nd         1 TT4      -0.812000
     12 CAL          1.2470     1.1300    -0.1560 cc         1 TT4       0.699400
     13 NAB          0.7800     2.3890    -0.3540 nv         1 TT4      -1.031900
     14 H1          -0.8670    -2.0280    -0.8380 ha         1 TT4       0.134500
     15 H2          -3.3120    -2.2960    -0.8250 ha         1 TT4       0.116500
     16 H3          -4.7630    -0.5080     0.0890 ha         1 TT4       0.116000
     17 H4          -3.7290     1.5420     1.0220 ha         1 TT4       0.116500
     18 H5          -1.2950     1.7950     1.0650 ha         1 TT4       0.134500
     19 H6           3.5870    -2.2460     0.4060 hn         1 TT4       0.501000
     20 H7           4.5100    -0.8110     0.1510 hn         1 TT4       0.501000
     21 H8          -0.1180     2.4790    -0.8050 hn         1 TT4       0.474000
     22 H9           1.4670     3.0170    -0.7400 hn         1 TT4       0.474000
@<TRIPOS>BOND
     1     1     2 ar  
     2     1     6 ar  
     3     1    14 1   
     4     2     3 ar  
     5     2    15 1   
     6     3     4 ar  
     7     3    16 1   
     8     4     5 ar  
     9     4    17 1   
    10     5     6 ar  
    11     5    18 1   
    12     6     7 1   
    13     7     8 1   
    14     7    12 1   
    15     8     9 2   
    16     9    10 1   
    17     9    11 1   
    18    10    19 1   
    19    10    20 1   
    20    11    12 2   
    21    12    13 1   
    22    13    21 1   
    23    13    22 1   
@<TRIPOS>SUBSTRUCTURE
     1 TT4         1 TEMP              0 ****  ****    0 ROOT
