@<TRIPOS>MOLECULE
TT5
   70    75     1     0     0
SMALL
abcg2


@<TRIPOS>ATOM
      1 N1          43.1230    -5.3590    15.4480 n          1 TT5      -0.374800
      2 C4          42.3220    -1.2460    15.3330 ca         1 TT5      -0.147000
      3 C5          42.5460    -2.6140    15.4910 ca         1 TT5      -0.028300
      4 C6          43.7670    -3.0600    16.0020 ca         1 TT5      -0.122300
      5 C7          41.4760    -3.5920    15.0700 c6         1 TT5      -0.011100
      6 C8          41.7380    -4.9770    15.6130 cx         1 TT5       0.050400
      7 C10         43.6210    -6.3030    14.6110 c          1 TT5       0.619700
      8 C13         41.2640    -6.8740    11.6920 ca         1 TT5      -0.117500
      9 C15         41.8650    -9.0010    12.6480 ca         1 TT5      -0.117500
     10 C17         44.1060    -4.9450    17.6870 ca         1 TT5      -0.136300
     11 C20         44.1520    -5.8320    20.3540 ca         1 TT5       0.144100
     12 C21         43.6440    -4.5710    20.0340 ca         1 TT5      -0.177000
     13 C22         43.6230    -4.1390    18.7170 ca         1 TT5      -0.058000
     14 C24         41.0510    -5.3660    16.9040 cx         1 TT5      -0.119400
     15 C26         44.6560    -7.5080    23.5940 c3         1 TT5       0.186800
     16 C28         48.0790    -6.3520    24.7380 c6         1 TT5      -0.075400
     17 C1          44.7440    -2.1210    16.3320 ca         1 TT5      -0.058000
     18 C11         42.7130    -6.9610    13.6190 ca         1 TT5      -0.132600
     19 C12         42.0230    -6.2240    12.6580 ca         1 TT5      -0.076000
     20 C14         41.1750    -8.2620    11.6900 ca         1 TT5      -0.096000
     21 C16         42.6440    -8.3540    13.5980 ca         1 TT5      -0.076000
     22 C18         44.6140    -6.1980    18.0200 ca         1 TT5      -0.058000
     23 C19         44.6390    -6.6520    19.3340 ca         1 TT5      -0.177000
     24 C2          44.5250    -0.7610    16.1770 ca         1 TT5      -0.199000
     25 C23         40.6380    -5.9910    15.6020 cx         1 TT5      -0.119400
     26 C25         44.6720    -7.4350    22.0700 c3         1 TT5       0.121600
     27 C27         47.0240    -7.3060    24.1580 c6         1 TT5       0.182300
     28 C29         47.4960    -5.5340    25.8870 c6         1 TT5      -0.064400
     29 C3          43.2990    -0.3220    15.6780 ca         1 TT5       0.138100
     30 C30         46.3420    -4.6530    25.3720 c6         1 TT5      -0.075400
     31 C31         45.6280    -5.3090    24.1780 c6         1 TT5       0.182300
     32 C9          44.0670    -4.5280    16.2220 c6         1 TT5       0.214300
     33 N2          45.6720    -6.7620    24.3150 n3         1 TT5      -0.750600
     34 O1          44.8120    -6.6330    14.6290 o          1 TT5      -0.608100
     35 O2          43.0130     1.0040    15.5060 oh         1 TT5      -0.539100
     36 O3          44.1360    -6.1680    21.6710 os         1 TT5      -0.358100
     37 H1          41.3760    -0.8930    14.9400 ha         1 TT5       0.128000
     38 H2          41.4370    -3.6250    13.9770 hc         1 TT5       0.059700
     39 H3          40.4970    -3.2420    15.4030 hc         1 TT5       0.059700
     40 H4          40.7400    -6.2950    10.9420 ha         1 TT5       0.116000
     41 H5          41.8020   -10.0820    12.6490 ha         1 TT5       0.116000
     42 H6          43.2680    -3.9410    20.8300 ha         1 TT5       0.121500
     43 H7          43.2190    -3.1610    18.4920 ha         1 TT5       0.125500
     44 H8          40.4140    -4.6240    17.3650 hc         1 TT5       0.082450
     45 H9          41.6020    -5.9900    17.5910 hc         1 TT5       0.082450
     46 H10         43.6690    -7.1850    23.9390 h1         1 TT5       0.062200
     47 H11         44.7640    -8.5630    23.8650 h1         1 TT5       0.062200
     48 H13         48.4290    -5.6700    23.9580 hc         1 TT5       0.040200
     49 H14         45.6950    -2.4610    16.7250 ha         1 TT5       0.121000
     50 H15         42.0900    -5.1450    12.6530 ha         1 TT5       0.121500
     51 H16         40.5750    -8.7670    10.9440 ha         1 TT5       0.115000
     52 H17         43.1910    -8.9250    14.3370 ha         1 TT5       0.121500
     53 H18         44.9890    -6.8420    17.2340 ha         1 TT5       0.125500
     54 H19         45.0370    -7.6330    19.5500 ha         1 TT5       0.121500
     55 H20         45.2940    -0.0430    16.4400 ha         1 TT5       0.117000
     56 H21         39.7100    -5.6840    15.1380 hc         1 TT5       0.082450
     57 H22         40.8920    -7.0280    15.4500 hc         1 TT5       0.082450
     58 H23         44.0550    -8.2370    21.6530 h1         1 TT5       0.039700
     59 H24         45.6860    -7.5460    21.6800 h1         1 TT5       0.039700
     60 H25         47.0560    -8.2690    24.6770 h1         1 TT5       0.032450
     61 H26         47.2700    -7.5050    23.1030 h1         1 TT5       0.032450
     62 H27         48.2670    -4.9160    26.3520 hc         1 TT5       0.041700
     63 H28         47.1290    -6.2140    26.6600 hc         1 TT5       0.041700
     64 H29         46.7240    -3.6770    25.0610 hc         1 TT5       0.040200
     65 H30         45.6270    -4.4750    26.1780 hc         1 TT5       0.040200
     66 H31         46.0840    -4.9760    23.2330 h1         1 TT5       0.032450
     67 H32         44.5840    -5.0000    24.1400 h1         1 TT5       0.032450
     68 H33         45.0460    -4.7420    15.7990 h1         1 TT5       0.095700
     69 H35         43.7680     1.5410    15.7820 ho         1 TT5       0.463000
     70 H12         48.9470    -6.9290    25.0610 hc         1 TT5       0.040200
@<TRIPOS>BOND
     1     1     6 1   
     2     1     7 1   
     3     1    32 1   
     4     2     3 ar  
     5     2    29 ar  
     6     2    37 1   
     7     3     4 ar  
     8     3     5 1   
     9     4    17 ar  
    10     4    32 1   
    11     5     6 1   
    12     5    38 1   
    13     5    39 1   
    14     6    14 1   
    15     6    25 1   
    16     7    18 1   
    17     7    34 2   
    18     8    19 ar  
    19     8    20 ar  
    20     8    40 1   
    21     9    20 ar  
    22     9    21 ar  
    23     9    41 1   
    24    10    13 ar  
    25    10    22 ar  
    26    10    32 1   
    27    11    12 ar  
    28    11    23 ar  
    29    11    36 1   
    30    12    13 ar  
    31    12    42 1   
    32    13    43 1   
    33    14    25 1   
    34    14    44 1   
    35    14    45 1   
    36    15    26 1   
    37    15    33 1   
    38    15    46 1   
    39    15    47 1   
    40    16    27 1   
    41    16    28 1   
    42    16    48 1   
    43    16    70 1   
    44    17    24 ar  
    45    17    49 1   
    46    18    19 ar  
    47    18    21 ar  
    48    19    50 1   
    49    20    51 1   
    50    21    52 1   
    51    22    23 ar  
    52    22    53 1   
    53    23    54 1   
    54    24    29 ar  
    55    24    55 1   
    56    25    56 1   
    57    25    57 1   
    58    26    36 1   
    59    26    58 1   
    60    26    59 1   
    61    27    33 1   
    62    27    60 1   
    63    27    61 1   
    64    28    30 1   
    65    28    62 1   
    66    28    63 1   
    67    29    35 1   
    68    30    31 1   
    69    30    64 1   
    70    30    65 1   
    71    31    33 1   
    72    31    66 1   
    73    31    67 1   
    74    32    68 1   
    75    35    69 1   
@<TRIPOS>SUBSTRUCTURE
     1 TT5         1 TEMP              0 ****  ****    0 ROOT
