@<TRIPOS>MOLECULE
TT5
   70    75     1     0     0
SMALL
No Charge or Current Charge


@<TRIPOS>ATOM
      1 N1          43.0650    -5.3910    15.3190 n          1 TT5      -0.374800
      2 C4          42.5690    -1.1500    15.4820 ca         1 TT5      -0.147000
      3 C5          42.6990    -2.5500    15.5500 ca         1 TT5      -0.028300
      4 C6          43.9120    -3.1200    16.0010 ca         1 TT5      -0.122300
      5 C7          41.5310    -3.4370    15.1160 c6         1 TT5      -0.011100
      6 C8          41.6910    -4.9090    15.5380 cx         1 TT5       0.050400
      7 C10         43.4450    -6.4840    14.4920 c          1 TT5       0.619700
      8 C13         40.8050    -6.8070    11.7150 ca         1 TT5      -0.117500
      9 C15         41.5210    -9.0300    12.3860 ca         1 TT5      -0.117500
     10 C17         44.1800    -5.1350    17.5620 ca         1 TT5      -0.136300
     11 C20         44.3660    -6.0630    20.2290 ca         1 TT5       0.144100
     12 C21         43.6200    -4.9140    19.9300 ca         1 TT5      -0.177000
     13 C22         43.5260    -4.4480    18.6080 ca         1 TT5      -0.058000
     14 C24         40.9750    -5.3170    16.8150 cx         1 TT5      -0.119400
     15 C26         45.0520    -7.8020    23.5050 c3         1 TT5       0.186800
     16 C28         48.0240    -5.8660    25.1290 c6         1 TT5      -0.075400
     17 C1          44.9760    -2.2760    16.3810 ca         1 TT5      -0.058000
     18 C11         42.4730    -7.0630    13.4880 ca         1 TT5      -0.132600
     19 C12         41.6840    -6.2400    12.6540 ca         1 TT5      -0.076000
     20 C14         40.7180    -8.2030    11.5860 ca         1 TT5      -0.096000
     21 C16         42.4010    -8.4640    13.3250 ca         1 TT5      -0.076000
     22 C18         44.9320    -6.2870    17.8660 ca         1 TT5      -0.058000
     23 C19         45.0260    -6.7520    19.1900 ca         1 TT5      -0.177000
     24 C2          44.8350    -0.8800    16.3130 ca         1 TT5      -0.199000
     25 C23         40.4600    -5.8020    15.4920 cx         1 TT5      -0.119400
     26 C25         45.1810    -7.6240    21.9630 c3         1 TT5       0.121600
     27 C27         47.2770    -6.9420    24.2880 c6         1 TT5       0.182300
     28 C29         47.0940    -5.1690    26.1480 c6         1 TT5      -0.064400
     29 C3          43.6320    -0.3190    15.8630 ca         1 TT5       0.138100
     30 C30         45.8700    -4.5420    25.4280 c6         1 TT5      -0.075400
     31 C31         45.3250    -5.4230    24.2670 c6         1 TT5       0.182300
     32 C9          44.0920    -4.6470    16.1030 c6         1 TT5       0.214300
     33 N2          45.7880    -6.8330    24.3760 n3         1 TT5      -0.750600
     34 O1          44.5800    -6.9430    14.5510 o          1 TT5      -0.608100
     35 O2          43.4920     1.0340    15.7940 oh         1 TT5      -0.539100
     36 O3          44.4220    -6.4710    21.5460 os         1 TT5      -0.358100
     37 H1          41.6400    -0.7050    15.1310 ha         1 TT5       0.128000
     38 H2          41.4360    -3.3810    14.0250 hc         1 TT5       0.059700
     39 H3          40.5910    -3.0320    15.5160 hc         1 TT5       0.059700
     40 H4          40.1980    -6.1640    11.0820 ha         1 TT5       0.116000
     41 H5          41.4640   -10.1110    12.2790 ha         1 TT5       0.116000
     42 H6          43.1100    -4.3810    20.7290 ha         1 TT5       0.121500
     43 H7          42.9360    -3.5580    18.4030 ha         1 TT5       0.125500
     44 H8          40.3930    -4.5670    17.3450 hc         1 TT5       0.082450
     45 H9          41.4510    -6.0530    17.4580 hc         1 TT5       0.082450
     46 H10         43.9820    -7.7810    23.7550 h1         1 TT5       0.062200
     47 H11         45.3950    -8.8180    23.7420 h1         1 TT5       0.062200
     48 H13         48.4420    -5.1090    24.4510 hc         1 TT5       0.040200
     49 H14         45.9110    -2.7060    16.7360 ha         1 TT5       0.121000
     50 H15         41.7650    -5.1600    12.7160 ha         1 TT5       0.121500
     51 H16         40.0380    -8.6410    10.8580 ha         1 TT5       0.115000
     52 H17         43.0200    -9.1150    13.9390 ha         1 TT5       0.121500
     53 H18         45.4470    -6.8280    17.0750 ha         1 TT5       0.125500
     54 H19         45.6120    -7.6440    19.3870 ha         1 TT5       0.121500
     55 H20         45.6650    -0.2430    16.6110 ha         1 TT5       0.117000
     56 H21         39.5340    -5.3710    15.1200 hc         1 TT5       0.082450
     57 H22         40.5700    -6.8640    15.2960 hc         1 TT5       0.082450
     58 H23         44.7860    -8.5260    21.4770 h1         1 TT5       0.039700
     59 H24         46.2370    -7.5240    21.6840 h1         1 TT5       0.039700
     60 H25         47.5860    -7.9380    24.6390 h1         1 TT5       0.032450
     61 H26         47.6170    -6.8560    23.2460 h1         1 TT5       0.032450
     62 H27         47.6430    -4.3980    26.7060 hc         1 TT5       0.041700
     63 H28         46.7500    -5.9050    26.8890 hc         1 TT5       0.041700
     64 H29         46.1360    -3.5530    25.0300 hc         1 TT5       0.040200
     65 H30         45.0730    -4.3700    26.1640 hc         1 TT5       0.040200
     66 H31         45.6680    -4.9930    23.3140 h1         1 TT5       0.032450
     67 H32         44.2260    -5.3700    24.2650 h1         1 TT5       0.032450
     68 H33         45.0750    -4.8450    15.6490 h1         1 TT5       0.095700
     69 H35         44.3290     1.4470    16.0950 ho         1 TT5       0.463000
     70 H12         48.8800    -6.3230    25.6440 hc         1 TT5       0.040200
@<TRIPOS>BOND
     1     1     6 1   
     2     1     7 1   
     3     1    32 1   
     4     2     3 ar  
     5     2    29 ar  
     6     2    37 1   
     7     3     4 ar  
     8     3     5 1   
     9     4    17 ar  
    10     4    32 1   
    11     5     6 1   
    12     5    38 1   
    13     5    39 1   
    14     6    14 1   
    15     6    25 1   
    16     7    18 1   
    17     7    34 2   
    18     8    19 ar  
    19     8    20 ar  
    20     8    40 1   
    21     9    20 ar  
    22     9    21 ar  
    23     9    41 1   
    24    10    13 ar  
    25    10    22 ar  
    26    10    32 1   
    27    11    12 ar  
    28    11    23 ar  
    29    11    36 1   
    30    12    13 ar  
    31    12    42 1   
    32    13    43 1   
    33    14    25 1   
    34    14    44 1   
    35    14    45 1   
    36    15    26 1   
    37    15    33 1   
    38    15    46 1   
    39    15    47 1   
    40    16    27 1   
    41    16    28 1   
    42    16    48 1   
    43    16    70 1   
    44    17    24 ar  
    45    17    49 1   
    46    18    19 ar  
    47    18    21 ar  
    48    19    50 1   
    49    20    51 1   
    50    21    52 1   
    51    22    23 ar  
    52    22    53 1   
    53    23    54 1   
    54    24    29 ar  
    55    24    55 1   
    56    25    56 1   
    57    25    57 1   
    58    26    36 1   
    59    26    58 1   
    60    26    59 1   
    61    27    33 1   
    62    27    60 1   
    63    27    61 1   
    64    28    30 1   
    65    28    62 1   
    66    28    63 1   
    67    29    35 1   
    68    30    31 1   
    69    30    64 1   
    70    30    65 1   
    71    31    33 1   
    72    31    66 1   
    73    31    67 1   
    74    32    68 1   
    75    35    69 1   
@<TRIPOS>SUBSTRUCTURE
     1 TT5         1 TEMP              0 ****  ****    0 ROOT
