@<TRIPOS>MOLECULE
TT6
   27    28     1     0     0
SMALL
No Charge or Current Charge


@<TRIPOS>ATOM
      1 C10         24.0850     5.4970    58.3860 c3         1 TT6      -0.123400
      2 C15         22.1370     2.9440    59.9200 ca         1 TT6      -0.107000
      3 C03         22.1040     0.8560    58.6590 ca         1 TT6      -0.022000
      4 C04         23.4640     0.6560    58.9690 ca         1 TT6      -0.069000
      5 C05         24.1550     1.5980    59.7500 ca         1 TT6      -0.107000
      6 C06         23.4970     2.7470    60.2300 ca         1 TT6      -0.059300
      7 C08         25.3970     4.4040    60.3080 cc         1 TT6      -0.233300
      8 C09         25.3370     5.1500    59.1440 cd         1 TT6       0.339300
      9 C12         27.4980     5.1760    59.4690 cc         1 TT6       0.702300
     10 C16         21.4430     2.0030    59.1380 ca         1 TT6      -0.069000
     11 N01         20.8130    -0.8860    57.2150 n1         1 TT6      -0.454000
     12 N11         26.5610     5.5980    58.6680 nd         1 TT6      -0.730000
     13 N13         28.7560     5.5170    59.1830 nv         1 TT6      -1.035900
     14 S14         27.0430     4.2330    60.8530 ss         1 TT6      -0.128400
     15 H1          23.2960     5.8360    59.0660 hc         1 TT6       0.050700
     16 H2          24.2630     6.2970    57.6580 hc         1 TT6       0.050700
     17 H3          23.7090     4.6240    57.8400 hc         1 TT6       0.050700
     18 H4          21.6140     3.8270    60.2810 ha         1 TT6       0.120500
     19 H5          23.9860    -0.2260    58.6040 ha         1 TT6       0.126000
     20 H6          25.2050     1.4370    59.9820 ha         1 TT6       0.120500
     21 H7          23.5820     4.5540    61.4230 hc         1 TT6       0.061700
     22 H8          24.6430     3.2790    61.9700 hc         1 TT6       0.061700
     23 H9          20.3930     2.1680    58.9050 ha         1 TT6       0.126000
     24 H10         28.8460     6.2770    58.5200 hn         1 TT6       0.476500
     25 H11         29.4200     5.5040    59.9480 hn         1 TT6       0.476500
     26 C07         24.2590     3.7680    61.0660 c3         1 TT6       0.050200
     27 C02         21.3960    -0.1060    57.8590 cg         1 TT6       0.324000
@<TRIPOS>BOND
     1     1     8 1   
     2     1    15 1   
     3     1    16 1   
     4     1    17 1   
     5     2     6 ar  
     6     2    10 ar  
     7     2    18 1   
     8     3     4 ar  
     9     3    10 ar  
    10     3    27 1   
    11     4     5 ar  
    12     4    19 1   
    13     5     6 ar  
    14     5    20 1   
    15     6    26 1   
    16     7     8 2   
    17     7    14 1   
    18     7    26 1   
    19     8    12 1   
    20     9    12 2   
    21     9    13 1   
    22     9    14 1   
    23    10    23 1   
    24    11    27 3   
    25    13    24 1   
    26    13    25 1   
    27    21    26 1   
    28    22    26 1   
@<TRIPOS>SUBSTRUCTURE
     1 TT6         1 TEMP              0 ****  ****    0 ROOT
