@<TRIPOS>MOLECULE
TT6
   27    28     1     0     0
SMALL
abcg2


@<TRIPOS>ATOM
      1 C10         24.0120     6.6640    59.5710 c3         1 TT6      -0.123400
      2 C15         22.7960     2.8070    58.9040 ca         1 TT6      -0.107000
      3 C03         22.4300     0.4470    58.6130 ca         1 TT6      -0.022000
      4 C04         23.1450     0.1880    59.7860 ca         1 TT6      -0.069000
      5 C05         23.6750     1.2460    60.5090 ca         1 TT6      -0.107000
      6 C06         23.5070     2.5620    60.0810 ca         1 TT6      -0.059300
      7 C08         25.1600     4.4520    60.1150 cc         1 TT6      -0.233300
      8 C09         25.1440     5.6890    59.5500 cd         1 TT6       0.339300
      9 C12         27.2100     5.1280    58.9390 cc         1 TT6       0.702300
     10 C16         22.2540     1.7660    58.1720 ca         1 TT6      -0.069000
     11 N01         21.4250    -1.5100    57.2640 n1         1 TT6      -0.454000
     12 N11         26.3080     6.0650    58.8920 nd         1 TT6      -0.730000
     13 N13         28.4280     5.2000    58.3280 nv         1 TT6      -1.035900
     14 S14         26.7090     3.6900    59.8030 ss         1 TT6      -0.128400
     15 H1          24.3310     7.6090    60.0170 hc         1 TT6       0.050700
     16 H2          23.6780     6.8800    58.5530 hc         1 TT6       0.050700
     17 H3          23.1620     6.2850    60.1340 hc         1 TT6       0.050700
     18 H4          22.6680     3.8250    58.5580 ha         1 TT6       0.120500
     19 H5          23.2800    -0.8310    60.1220 ha         1 TT6       0.126000
     20 H6          24.2270     1.0460    61.4190 ha         1 TT6       0.120500
     21 H7          23.3010     4.4180    61.1180 hc         1 TT6       0.061700
     22 H8          24.4920     3.3340    61.8120 hc         1 TT6       0.061700
     23 H9          21.6990     1.9600    57.2640 ha         1 TT6       0.126000
     24 H10         28.7310     6.1320    58.0820 hn         1 TT6       0.476500
     25 H11         29.1620     4.6000    58.6730 hn         1 TT6       0.476500
     26 C07         24.0960     3.7140    60.8680 c3         1 TT6       0.050200
     27 C02         21.8750    -0.6340    57.8660 cg         1 TT6       0.324000
@<TRIPOS>BOND
     1     1     8 1   
     2     1    15 1   
     3     1    16 1   
     4     1    17 1   
     5     2     6 ar  
     6     2    10 ar  
     7     2    18 1   
     8     3     4 ar  
     9     3    10 ar  
    10     3    27 1   
    11     4     5 ar  
    12     4    19 1   
    13     5     6 ar  
    14     5    20 1   
    15     6    26 1   
    16     7     8 2   
    17     7    14 1   
    18     7    26 1   
    19     8    12 1   
    20     9    12 2   
    21     9    13 1   
    22     9    14 1   
    23    10    23 1   
    24    11    27 3   
    25    13    24 1   
    26    13    25 1   
    27    21    26 1   
    28    22    26 1   
@<TRIPOS>SUBSTRUCTURE
     1 TT6         1 TEMP              0 ****  ****    0 ROOT
