@<TRIPOS>MOLECULE
TTB
   53    55     1     0     0
SMALL
abcg2


@<TRIPOS>ATOM
      1 C           -1.3860    -1.1830     0.9400 c3         1 TTB      -0.042900
      2 C2          -0.1460    -0.3940     0.6240 ce         1 TTB      -0.107400
      3 C3           0.6590     0.1450     1.5560 cf         1 TTB      -0.099200
      4 C4           0.5260     0.1110     3.0150 ca         1 TTB      -0.108800
      5 C5          -0.6960     0.1730     3.6910 ca         1 TTB      -0.122000
      6 C6          -0.7460     0.1490     5.0760 ca         1 TTB      -0.095500
      7 C7           0.4140     0.0670     5.8410 ca         1 TTB      -0.115600
      8 C8           0.3530     0.0340     7.3610 c          1 TTB       0.710600
      9 O           -0.7810     0.0760     7.8760 o          1 TTB      -0.719000
     10 O1           1.4420    -0.0360     7.9620 o          1 TTB      -0.719000
     11 C9           1.6360     0.0300     5.1710 ca         1 TTB      -0.095500
     12 C10          1.6920     0.0620     3.7880 ca         1 TTB      -0.122000
     13 C11          0.1840    -0.2340    -0.8110 ca         1 TTB      -0.021800
     14 C12          1.5000    -0.1370    -1.2710 ca         1 TTB      -0.111000
     15 C13          1.7570     0.0060    -2.6190 ca         1 TTB      -0.112000
     16 C14          0.7400     0.0550    -3.5780 ca         1 TTB      -0.075300
     17 C15         -0.5860    -0.0190    -3.1310 ca         1 TTB      -0.062300
     18 C16         -0.8270    -0.1820    -1.7650 ca         1 TTB      -0.112000
     19 C17         -1.7840     0.0300    -4.0750 c6         1 TTB       0.003300
     20 C18         -2.3800    -1.3790    -4.1940 c3         1 TTB      -0.080100
     21 C19         -2.8660     0.9810    -3.5510 c3         1 TTB      -0.080100
     22 C20         -1.3530     0.5350    -5.4540 c6         1 TTB      -0.065400
     23 C21         -0.0810    -0.1290    -5.9390 c6         1 TTB      -0.065400
     24 C22          1.1190     0.2000    -5.0460 c6         1 TTB       0.004300
     25 C23          1.5810     1.6410    -5.3030 c3         1 TTB      -0.079600
     26 C24          2.2580    -0.7550    -5.4210 c3         1 TTB      -0.079600
     27 H1          -1.3360    -1.6370     1.9280 hc         1 TTB       0.037367
     28 H2          -2.2870    -0.5650     0.9130 hc         1 TTB       0.037367
     29 H3A         -1.5280    -1.9820     0.2120 hc         1 TTB       0.037367
     30 H3           1.5490     0.6630     1.2120 ha         1 TTB       0.160000
     31 H5          -1.6180     0.2750     3.1330 ha         1 TTB       0.086500
     32 H6          -1.7060     0.2050     5.5730 ha         1 TTB       0.128000
     33 H9           2.5540    -0.0210     5.7420 ha         1 TTB       0.128000
     34 H10          2.6550     0.0400     3.2910 ha         1 TTB       0.086500
     35 H12          2.3310    -0.2040    -0.5800 ha         1 TTB       0.116000
     36 H13          2.7910     0.0680    -2.9360 ha         1 TTB       0.102000
     37 H16         -1.8540    -0.2580    -1.4300 ha         1 TTB       0.111000
     38 H181        -2.7140    -1.7500    -3.2230 hc         1 TTB       0.033533
     39 H182        -3.2450    -1.3740    -4.8620 hc         1 TTB       0.033533
     40 H183        -1.6580    -2.0950    -4.5880 hc         1 TTB       0.033533
     41 H191        -3.3240     0.6340    -2.6240 hc         1 TTB       0.033533
     42 H192        -2.4620     1.9800    -3.3750 hc         1 TTB       0.033533
     43 H193        -3.6660     1.0720    -4.2890 hc         1 TTB       0.033533
     44 H201        -1.2100     1.6200    -5.4140 hc         1 TTB       0.038200
     45 H202        -2.1670     0.3660    -6.1640 hc         1 TTB       0.038200
     46 H211         0.1450     0.1800    -6.9640 hc         1 TTB       0.037200
     47 H212        -0.2200    -1.2140    -5.9730 hc         1 TTB       0.037200
     48 H231         2.4330     1.9050    -4.6730 hc         1 TTB       0.031867
     49 H232         1.8860     1.7610    -6.3450 hc         1 TTB       0.031867
     50 H233         0.7910     2.3660    -5.1010 hc         1 TTB       0.031867
     51 H241         3.2050    -0.4890    -4.9500 hc         1 TTB       0.031867
     52 H242         2.0210    -1.7840    -5.1460 hc         1 TTB       0.031867
     53 H243         2.4190    -0.7260    -6.5010 hc         1 TTB       0.031867
@<TRIPOS>BOND
     1     1     2 1   
     2     1    27 1   
     3     1    28 1   
     4     1    29 1   
     5     2     3 2   
     6     2    13 1   
     7     3     4 1   
     8     3    30 1   
     9     4     5 ar  
    10     4    12 ar  
    11     5     6 ar  
    12     5    31 1   
    13     6     7 ar  
    14     6    32 1   
    15     7     8 1   
    16     7    11 ar  
    17     8     9 1   
    18     8    10 1   
    19    11    12 ar  
    20    11    33 1   
    21    12    34 1   
    22    13    14 ar  
    23    13    18 ar  
    24    14    15 ar  
    25    14    35 1   
    26    15    16 ar  
    27    15    36 1   
    28    16    17 ar  
    29    16    24 1   
    30    17    18 ar  
    31    17    19 1   
    32    18    37 1   
    33    19    20 1   
    34    19    21 1   
    35    19    22 1   
    36    20    38 1   
    37    20    39 1   
    38    20    40 1   
    39    21    41 1   
    40    21    42 1   
    41    21    43 1   
    42    22    23 1   
    43    22    44 1   
    44    22    45 1   
    45    23    24 1   
    46    23    46 1   
    47    23    47 1   
    48    24    25 1   
    49    24    26 1   
    50    25    48 1   
    51    25    49 1   
    52    25    50 1   
    53    26    51 1   
    54    26    52 1   
    55    26    53 1   
@<TRIPOS>SUBSTRUCTURE
     1 TTB         1 TEMP              0 ****  ****    0 ROOT
