@<TRIPOS>MOLECULE
TTB
   53    55     1     0     0
SMALL
No Charge or Current Charge


@<TRIPOS>ATOM
      1 C           -1.1330    -1.5710     0.9500 c3         1 TTB      -0.042900
      2 C2          -0.0920    -0.5040     0.6370 ce         1 TTB      -0.107400
      3 C3           0.5970     0.1620     1.6150 cf         1 TTB      -0.099200
      4 C4           0.4880     0.1390     3.0900 ca         1 TTB      -0.108800
      5 C5          -0.7330    -0.0830     3.7590 ca         1 TTB      -0.122000
      6 C6          -0.7930    -0.0800     5.1630 ca         1 TTB      -0.095500
      7 C7           0.3650     0.1560     5.9390 ca         1 TTB      -0.115600
      8 C8           0.3010     0.1600     7.4600 c          1 TTB       0.710600
      9 O           -0.7750    -0.0540     8.0030 o          1 TTB      -0.719000
     10 O1           1.3270     0.3750     8.0900 o          1 TTB      -0.719000
     11 C9           1.5830     0.3990     5.2630 ca         1 TTB      -0.095500
     12 C10          1.6380     0.3960     3.8580 ca         1 TTB      -0.122000
     13 C11          0.2000    -0.3250    -0.8160 ca         1 TTB      -0.021800
     14 C12          1.5240    -0.2890    -1.2770 ca         1 TTB      -0.111000
     15 C13          1.7970    -0.1350    -2.6430 ca         1 TTB      -0.112000
     16 C14          0.7540    -0.0170    -3.5920 ca         1 TTB      -0.075300
     17 C15         -0.5920    -0.0050    -3.1240 ca         1 TTB      -0.062300
     18 C16         -0.8460    -0.1820    -1.7440 ca         1 TTB      -0.112000
     19 C17         -1.7970     0.1680    -4.1190 c6         1 TTB       0.003300
     20 C18         -2.5510    -1.1970    -4.1980 c3         1 TTB      -0.080100
     21 C19         -2.8190     1.2190    -3.5780 c3         1 TTB      -0.080100
     22 C20         -1.3770     0.6270    -5.5680 c6         1 TTB      -0.065400
     23 C21         -0.1170    -0.1240    -6.0290 c6         1 TTB      -0.065400
     24 C22          1.1070     0.1420    -5.1000 c6         1 TTB       0.004300
     25 C23          1.6610     1.5840    -5.3240 c3         1 TTB      -0.079600
     26 C24          2.2370    -0.8500    -5.5300 c3         1 TTB      -0.079600
     27 H1          -0.8850    -2.1270     1.8610 hc         1 TTB       0.037367
     28 H2          -2.1290    -1.1310     1.0780 hc         1 TTB       0.037367
     29 H3A         -1.2050    -2.3110     0.1430 hc         1 TTB       0.037367
     30 H3           1.3640     0.8540     1.2670 ha         1 TTB       0.160000
     31 H5          -1.6500    -0.2360     3.2000 ha         1 TTB       0.086500
     32 H6          -1.7510    -0.2550     5.6480 ha         1 TTB       0.128000
     33 H9           2.4940     0.5920     5.8260 ha         1 TTB       0.128000
     34 H10          2.5890     0.5850     3.3650 ha         1 TTB       0.086500
     35 H12          2.3500    -0.3930    -0.5770 ha         1 TTB       0.116000
     36 H13          2.8370    -0.1060    -2.9550 ha         1 TTB       0.102000
     37 H16         -1.8680    -0.2050    -1.3780 ha         1 TTB       0.111000
     38 H181        -2.9490    -1.4960    -3.2210 hc         1 TTB       0.033533
     39 H182        -3.3980    -1.1510    -4.8940 hc         1 TTB       0.033533
     40 H183        -1.8900    -2.0040    -4.5340 hc         1 TTB       0.033533
     41 H191        -3.3050     0.8990    -2.6490 hc         1 TTB       0.033533
     42 H192        -2.3280     2.1790    -3.3790 hc         1 TTB       0.033533
     43 H193        -3.6200     1.4050    -4.3040 hc         1 TTB       0.033533
     44 H201        -1.1870     1.7080    -5.5830 hc         1 TTB       0.038200
     45 H202        -2.1970     0.4570    -6.2790 hc         1 TTB       0.038200
     46 H211         0.1220     0.1670    -7.0610 hc         1 TTB       0.037200
     47 H212        -0.3290    -1.2010    -6.0670 hc         1 TTB       0.037200
     48 H231         2.5860     1.7510    -4.7600 hc         1 TTB       0.031867
     49 H232         1.8850     1.7700    -6.3820 hc         1 TTB       0.031867
     50 H233         0.9470     2.3480    -4.9960 hc         1 TTB       0.031867
     51 H241         3.2010    -0.6270    -5.0590 hc         1 TTB       0.031867
     52 H242         1.9730    -1.8830    -5.2720 hc         1 TTB       0.031867
     53 H243         2.4040    -0.8160    -6.6130 hc         1 TTB       0.031867
@<TRIPOS>BOND
     1     1     2 1   
     2     1    27 1   
     3     1    28 1   
     4     1    29 1   
     5     2     3 2   
     6     2    13 1   
     7     3     4 1   
     8     3    30 1   
     9     4     5 ar  
    10     4    12 ar  
    11     5     6 ar  
    12     5    31 1   
    13     6     7 ar  
    14     6    32 1   
    15     7     8 1   
    16     7    11 ar  
    17     8     9 1   
    18     8    10 1   
    19    11    12 ar  
    20    11    33 1   
    21    12    34 1   
    22    13    14 ar  
    23    13    18 ar  
    24    14    15 ar  
    25    14    35 1   
    26    15    16 ar  
    27    15    36 1   
    28    16    17 ar  
    29    16    24 1   
    30    17    18 ar  
    31    17    19 1   
    32    18    37 1   
    33    19    20 1   
    34    19    21 1   
    35    19    22 1   
    36    20    38 1   
    37    20    39 1   
    38    20    40 1   
    39    21    41 1   
    40    21    42 1   
    41    21    43 1   
    42    22    23 1   
    43    22    44 1   
    44    22    45 1   
    45    23    24 1   
    46    23    46 1   
    47    23    47 1   
    48    24    25 1   
    49    24    26 1   
    50    25    48 1   
    51    25    49 1   
    52    25    50 1   
    53    26    51 1   
    54    26    52 1   
    55    26    53 1   
@<TRIPOS>SUBSTRUCTURE
     1 TTB         1 TEMP              0 ****  ****    0 ROOT
