@<TRIPOS>MOLECULE
TTC
   54    58     1     0     0
SMALL
No Charge or Current Charge


@<TRIPOS>ATOM
      1 C25          1.3370     1.4540     5.0720 c3         1 TTC      -0.100400
      2 C31          2.2170     1.7730     6.3040 c3         1 TTC      -0.097100
      3 C21          1.2180    -0.0570     4.6780 c6         1 TTC       0.121200
      4 O24          2.5460    -0.5370     4.3380 oh         1 TTC      -0.637000
      5 C16          0.2850    -0.1730     3.4810 cc         1 TTC       0.034800
      6 C20          0.6310    -0.8850     5.8950 c          1 TTC       0.645100
      7 C15         -1.0750    -0.3300     3.6720 cd         1 TTC      -0.276400
      8 C17          0.7920    -0.0930     2.1350 cc         1 TTC      -0.214000
      9 O23          1.3700    -1.5090     6.6480 o          1 TTC      -0.501000
     10 O22         -0.7290    -1.0910     5.9260 os         1 TTC      -0.428100
     11 C14         -2.0450    -0.4260     2.5460 c          1 TTC       0.575200
     12 C19         -1.6310    -0.3610     5.0730 c6         1 TTC       0.235800
     13 C13         -0.0960    -0.1900     1.0920 cd         1 TTC      -0.000200
     14 O18         -3.2540    -0.5510     2.6950 o          1 TTC      -0.566000
     15 N12         -1.4530    -0.3540     1.2780 n          1 TTC      -0.270000
     16 C9           0.1270    -0.1450    -0.3410 ca         1 TTC       0.362800
     17 C11         -2.2430    -0.4300     0.0120 c5         1 TTC       0.140300
     18 C8          -1.0890    -0.2810    -0.9790 ca         1 TTC      -0.143300
     19 N10          1.3150    -0.0150    -0.9580 nb         1 TTC      -0.599000
     20 C7          -1.1350    -0.2750    -2.3780 ca         1 TTC      -0.062000
     21 C5           1.3000    -0.0060    -2.3160 ca         1 TTC       0.225000
     22 C6           0.0900    -0.1200    -3.0840 ca         1 TTC      -0.006000
     23 C4           2.5260     0.1060    -2.9920 ca         1 TTC      -0.040000
     24 C1           0.1390    -0.0920    -4.5110 ca         1 TTC      -0.219300
     25 C3           2.5800     0.0990    -4.3910 ca         1 TTC      -0.137000
     26 C2           1.4030    -0.0010    -5.1380 ca         1 TTC       0.203100
     27 C27         -1.1360    -0.2220    -5.3730 c3         1 TTC       0.209100
     28 N28         -1.0770     0.5030    -6.6690 n3         1 TTC      -0.738600
     29 C29         -2.1140     0.0380    -7.6210 c3         1 TTC       0.141100
     30 C30         -1.1090     1.9790    -6.4980 c3         1 TTC       0.141100
     31 O26          1.4850     0.0060    -6.4910 oh         1 TTC      -0.567100
     32 H251         0.3390     1.8680     5.2580 hc         1 TTC       0.058200
     33 H252         1.7340     2.0170     4.2180 hc         1 TTC       0.058200
     34 H311         2.2470     2.8560     6.4760 hc         1 TTC       0.042700
     35 H312         1.8200     1.3010     7.2100 hc         1 TTC       0.042700
     36 H313         3.2480     1.4280     6.1550 hc         1 TTC       0.042700
     37 H241         2.9490    -0.8610     5.1760 ho         1 TTC       0.474000
     38 H171         1.8550     0.0420     1.9530 ha         1 TTC       0.237000
     39 H191        -2.6180    -0.8440     5.1160 h1         1 TTC       0.080200
     40 H192        -1.7450     0.6620     5.4620 h1         1 TTC       0.080200
     41 H111        -2.7590    -1.3930    -0.0950 h1         1 TTC       0.085700
     42 H112        -2.9680     0.3900    -0.0720 h1         1 TTC       0.085700
     43 H71         -2.0940    -0.3980    -2.8690 ha         1 TTC       0.123000
     44 H41          3.4470     0.1890    -2.4200 ha         1 TTC       0.138000
     45 H31          3.5380     0.1780    -4.8970 ha         1 TTC       0.137000
     46 H271        -1.2980    -1.2940    -5.5520 h1         1 TTC       0.047700
     47 H272        -2.0130     0.1460    -4.8290 h1         1 TTC       0.047700
     48 H291        -2.0090     0.5450    -8.5890 h1         1 TTC       0.043200
     49 H292        -2.0260    -1.0420    -7.7960 h1         1 TTC       0.043200
     50 H293        -3.1220     0.2430    -7.2340 h1         1 TTC       0.043200
     51 H301        -0.9910     2.4850    -7.4650 h1         1 TTC       0.043200
     52 H302        -2.0620     2.3020    -6.0560 h1         1 TTC       0.043200
     53 H303        -0.2970     2.3180    -5.8410 h1         1 TTC       0.043200
     54 H261         0.5360     0.1590    -6.7770 ho         1 TTC       0.525000
@<TRIPOS>BOND
     1     1     2 1   
     2     1     3 1   
     3     1    32 1   
     4     1    33 1   
     5     2    34 1   
     6     2    35 1   
     7     2    36 1   
     8     3     4 1   
     9     3     5 1   
    10     3     6 1   
    11     4    37 1   
    12     5     7 2   
    13     5     8 1   
    14     6     9 2   
    15     6    10 1   
    16     7    11 1   
    17     7    12 1   
    18     8    13 2   
    19     8    38 1   
    20    10    12 1   
    21    11    14 2   
    22    11    15 1   
    23    12    39 1   
    24    12    40 1   
    25    13    15 1   
    26    13    16 1   
    27    15    17 1   
    28    16    18 ar  
    29    16    19 ar  
    30    17    18 1   
    31    17    41 1   
    32    17    42 1   
    33    18    20 ar  
    34    19    21 ar  
    35    20    22 ar  
    36    20    43 1   
    37    21    22 ar  
    38    21    23 ar  
    39    22    24 ar  
    40    23    25 ar  
    41    23    44 1   
    42    24    26 ar  
    43    24    27 1   
    44    25    26 ar  
    45    25    45 1   
    46    26    31 1   
    47    27    28 1   
    48    27    46 1   
    49    27    47 1   
    50    28    29 1   
    51    28    30 1   
    52    29    48 1   
    53    29    49 1   
    54    29    50 1   
    55    30    51 1   
    56    30    52 1   
    57    30    53 1   
    58    31    54 1   
@<TRIPOS>SUBSTRUCTURE
     1 TTC         1 TEMP              0 ****  ****    0 ROOT
