@<TRIPOS>MOLECULE
TTC
   54    58     1     0     0
SMALL
abcg2


@<TRIPOS>ATOM
      1 C25          1.1960     1.4380     5.0740 c3         1 TTC      -0.100400
      2 C31          2.0660     1.7370     6.2870 c3         1 TTC      -0.097100
      3 C21          1.2150    -0.0420     4.6180 c6         1 TTC       0.121200
      4 O24          2.5010    -0.4590     4.2820 oh         1 TTC      -0.637000
      5 C16          0.3320    -0.1760     3.4030 cc         1 TTC       0.034800
      6 C20          0.6660    -0.9250     5.7410 c          1 TTC       0.645100
      7 C15         -1.0120    -0.2850     3.6120 cd         1 TTC      -0.276400
      8 C17          0.8690    -0.1350     2.0980 cc         1 TTC      -0.214000
      9 O23          1.3920    -1.5280     6.4860 o          1 TTC      -0.501000
     10 O22         -0.6420    -0.9900     5.9060 os         1 TTC      -0.428100
     11 C14         -1.9510    -0.3270     2.5210 c          1 TTC       0.575200
     12 C19         -1.5500    -0.3550     5.0000 c6         1 TTC       0.235800
     13 C13         -0.0170    -0.1870     1.0690 cd         1 TTC      -0.000200
     14 O18         -3.1710    -0.3990     2.6350 o          1 TTC      -0.566000
     15 N12         -1.3600    -0.2750     1.2810 n          1 TTC      -0.270000
     16 C9           0.1860    -0.1660    -0.3720 ca         1 TTC       0.362800
     17 C11         -2.1410    -0.3060     0.0450 c5         1 TTC       0.140300
     18 C8          -1.0730    -0.2360    -0.9960 ca         1 TTC      -0.143300
     19 N10          1.3290    -0.0990    -0.9920 nb         1 TTC      -0.599000
     20 C7          -1.1410    -0.2280    -2.3550 ca         1 TTC      -0.062000
     21 C5           1.2870    -0.0920    -2.3410 ca         1 TTC       0.225000
     22 C6           0.0690    -0.1470    -3.0910 ca         1 TTC      -0.006000
     23 C4           2.5180    -0.0310    -3.0330 ca         1 TTC      -0.040000
     24 C1           0.1120    -0.1300    -4.5080 ca         1 TTC      -0.219300
     25 C3           2.5450    -0.0140    -4.3930 ca         1 TTC      -0.137000
     26 C2           1.3440    -0.0620    -5.1430 ca         1 TTC       0.203100
     27 C27         -1.1380    -0.2610    -5.3480 c3         1 TTC       0.209100
     28 N28         -1.0560     0.5310    -6.5760 n3         1 TTC      -0.738600
     29 C29         -2.0360     0.0940    -7.5570 c3         1 TTC       0.141100
     30 C30         -1.1830     1.9550    -6.3010 c3         1 TTC       0.141100
     31 O26          1.4580    -0.0350    -6.4720 oh         1 TTC      -0.567100
     32 H251         0.1710     1.7570     5.2730 hc         1 TTC       0.058200
     33 H252         1.5360     2.0290     4.2200 hc         1 TTC       0.058200
     34 H311         2.0560     2.8090     6.4830 hc         1 TTC       0.042700
     35 H312         1.7120     1.2410     7.1900 hc         1 TTC       0.042700
     36 H313         3.1070     1.4530     6.1280 hc         1 TTC       0.042700
     37 H241         3.0210    -0.5640     5.0880 ho         1 TTC       0.474000
     38 H171         1.9270    -0.0590     1.9030 ha         1 TTC       0.237000
     39 H191        -2.4610    -0.9500     5.0340 h1         1 TTC       0.080200
     40 H192        -1.7950     0.6370     5.3910 h1         1 TTC       0.080200
     41 H111        -2.7330    -1.2220    -0.0090 h1         1 TTC       0.085700
     42 H112        -2.8270     0.5420     0.0070 h1         1 TTC       0.085700
     43 H71         -2.0990    -0.2870    -2.8540 ha         1 TTC       0.123000
     44 H41          3.4330     0.0070    -2.4570 ha         1 TTC       0.138000
     45 H31          3.4860     0.0400    -4.9260 ha         1 TTC       0.137000
     46 H271        -1.2620    -1.3100    -5.6340 h1         1 TTC       0.047700
     47 H272        -2.0380     0.0100    -4.7850 h1         1 TTC       0.047700
     48 H291        -1.9260     0.6810    -8.4690 h1         1 TTC       0.043200
     49 H292        -1.8750    -0.9540    -7.8060 h1         1 TTC       0.043200
     50 H293        -3.0660     0.2110    -7.1970 h1         1 TTC       0.043200
     51 H301        -1.0270     2.5220    -7.2180 h1         1 TTC       0.043200
     52 H302        -2.1730     2.2070    -5.9000 h1         1 TTC       0.043200
     53 H303        -0.4330     2.2710    -5.5760 h1         1 TTC       0.043200
     54 H261         0.5360     0.1720    -6.8270 ho         1 TTC       0.525000
@<TRIPOS>BOND
     1     1     2 1   
     2     1     3 1   
     3     1    32 1   
     4     1    33 1   
     5     2    34 1   
     6     2    35 1   
     7     2    36 1   
     8     3     4 1   
     9     3     5 1   
    10     3     6 1   
    11     4    37 1   
    12     5     7 2   
    13     5     8 1   
    14     6     9 2   
    15     6    10 1   
    16     7    11 1   
    17     7    12 1   
    18     8    13 2   
    19     8    38 1   
    20    10    12 1   
    21    11    14 2   
    22    11    15 1   
    23    12    39 1   
    24    12    40 1   
    25    13    15 1   
    26    13    16 1   
    27    15    17 1   
    28    16    18 ar  
    29    16    19 ar  
    30    17    18 1   
    31    17    41 1   
    32    17    42 1   
    33    18    20 ar  
    34    19    21 ar  
    35    20    22 ar  
    36    20    43 1   
    37    21    22 ar  
    38    21    23 ar  
    39    22    24 ar  
    40    23    25 ar  
    41    23    44 1   
    42    24    26 ar  
    43    24    27 1   
    44    25    26 ar  
    45    25    45 1   
    46    26    31 1   
    47    27    28 1   
    48    27    46 1   
    49    27    47 1   
    50    28    29 1   
    51    28    30 1   
    52    29    48 1   
    53    29    49 1   
    54    29    50 1   
    55    30    51 1   
    56    30    52 1   
    57    30    53 1   
    58    31    54 1   
@<TRIPOS>SUBSTRUCTURE
     1 TTC         1 TEMP              0 ****  ****    0 ROOT
