@<TRIPOS>MOLECULE
TTE
   44    45     1     0     0
SMALL
No Charge or Current Charge


@<TRIPOS>ATOM
      1 N1           0.3150     0.3210    -3.5680 n          1 TTE      -0.297000
      2 C2           0.0960    -0.7930    -4.4120 c          1 TTE       0.628000
      3 O2          -0.8190    -1.5910    -4.2880 o          1 TTE      -0.559000
      4 N3           0.9720    -0.9350    -5.4430 ns         1 TTE      -0.465500
      5 C4           2.0200    -0.1420    -5.7760 c          1 TTE       0.586200
      6 O4           2.7200    -0.4030    -6.7420 o          1 TTE      -0.620000
      7 C5           2.2080     1.0210    -4.8820 cc         1 TTE      -0.326400
      8 C5M          3.3610     1.9370    -5.2180 c3         1 TTE       0.013100
      9 C6           1.3570     1.2130    -3.8150 cd         1 TTE      -0.055400
     10 C1          -0.5330     0.5430    -2.3660 c5         1 TTE       0.352700
     11 C7          -1.8780     1.1920    -2.8280 c5         1 TTE      -0.153400
     12 C3          -2.9270     0.1540    -2.3360 c5         1 TTE       0.119300
     13 O3          -4.1750     0.7760    -2.0110 oh         1 TTE      -0.707000
     14 C8          -2.1810    -0.4430    -1.1050 c5         1 TTE       0.163300
     15 O6          -0.8720    -0.6640    -1.6650 os         1 TTE      -0.383000
     16 C9          -2.7910    -1.7660    -0.5530 c3         1 TTE       0.239600
     17 O5          -2.5370    -1.9310     0.8570 os         1 TTE      -0.555400
     18 PA          -1.0590    -2.2000     1.4530 p5         1 TTE       1.453800
     19 O1A         -0.3040    -3.1260     0.5560 o          1 TTE      -0.870000
     20 O2A         -1.2080    -2.7580     2.8310 o          1 TTE      -0.870000
     21 O3A         -0.5470    -0.7110     1.4250 os         1 TTE      -0.710800
     22 PB           0.7040    -0.4510     2.3520 p5         1 TTE       1.503400
     23 O1B          1.7830    -1.4750     2.1830 o          1 TTE      -0.862000
     24 O2B          0.3750    -0.2060     3.7900 o          1 TTE      -0.862000
     25 CC           1.3470     0.9910     1.5130 c3         1 TTE      -0.696400
     26 PG           0.4380     2.3890     2.1140 p5         1 TTE       1.316500
     27 O1G          1.0250     2.8100     3.4170 o          1 TTE      -0.916167
     28 O2G          0.7110     3.4660     1.1210 o          1 TTE      -0.916167
     29 O3G         -1.0270     2.1560     2.2120 o          1 TTE      -0.916167
     30 HN3          0.8150    -1.7290    -6.0410 hn         1 TTE       0.322500
     31 H5M1         3.2450     2.3640    -6.2210 hc         1 TTE       0.017700
     32 H5M2         3.4250     2.7700    -4.5070 hc         1 TTE       0.017700
     33 H5M3         4.3150     1.3970    -5.1840 hc         1 TTE       0.017700
     34 H6           1.4290     2.0380    -3.1100 h4         1 TTE       0.182000
     35 H1           0.0100     1.2190    -1.6950 h2         1 TTE       0.037700
     36 H2'1        -2.0080     2.1670    -2.3450 hc         1 TTE       0.036700
     37 H2'2        -1.9390     1.3570    -3.9100 hc         1 TTE       0.036700
     38 H3          -3.0740    -0.6310    -3.0930 h1         1 TTE       0.070700
     39 HO'3        -4.4960     1.2210    -2.8280 ho         1 TTE       0.470000
     40 H4          -2.1200     0.3020    -0.3000 h1         1 TTE       0.062700
     41 H5'1        -3.8770    -1.7370    -0.7130 h1         1 TTE       0.016200
     42 H5'2        -2.4050    -2.6180    -1.1270 h1         1 TTE       0.016200
     43 HCC1         2.4090     1.1110     1.7370 hc         1 TTE       0.032700
     44 HCC2         1.2180     0.8810     0.4330 hc         1 TTE       0.032700
@<TRIPOS>BOND
     1     1     2 1   
     2     1     9 1   
     3     1    10 1   
     4     2     3 2   
     5     2     4 1   
     6     4     5 1   
     7     4    30 1   
     8     5     6 2   
     9     5     7 1   
    10     7     8 1   
    11     7     9 2   
    12     8    31 1   
    13     8    32 1   
    14     8    33 1   
    15     9    34 1   
    16    10    11 1   
    17    10    15 1   
    18    10    35 1   
    19    11    12 1   
    20    11    36 1   
    21    11    37 1   
    22    12    13 1   
    23    12    14 1   
    24    12    38 1   
    25    13    39 1   
    26    14    15 1   
    27    14    16 1   
    28    14    40 1   
    29    16    17 1   
    30    16    41 1   
    31    16    42 1   
    32    17    18 1   
    33    18    19 1   
    34    18    20 1   
    35    18    21 1   
    36    21    22 1   
    37    22    23 1   
    38    22    24 1   
    39    22    25 1   
    40    25    26 1   
    41    25    43 1   
    42    25    44 1   
    43    26    27 1   
    44    26    28 1   
    45    26    29 1   
@<TRIPOS>SUBSTRUCTURE
     1 TTE         1 TEMP              0 ****  ****    0 ROOT
