@<TRIPOS>MOLECULE
TTE
   44    45     1     0     0
SMALL
bcc


@<TRIPOS>ATOM
      1 N1           0.0210     0.4410    -4.5450 n          1 TTE      -0.364000
      2 C2           0.1090    -0.9290    -4.6280 c          1 TTE       0.837500
      3 O2          -0.7480    -1.6850    -4.2210 o          1 TTE      -0.634500
      4 N3           1.2540    -1.3900    -5.2250 ns         1 TTE      -0.599500
      5 C4           2.3080    -0.6540    -5.7340 c          1 TTE       0.728700
      6 O4           3.2620    -1.2110    -6.2480 o          1 TTE      -0.695500
      7 C5           2.1580     0.7790    -5.5920 cc         1 TTE      -0.326400
      8 C5M          3.2410     1.6750    -6.0960 c3         1 TTE       0.013100
      9 C6           1.0370     1.2370    -5.0070 cd         1 TTE      -0.005400
     10 C1          -1.1290     1.0670    -3.8910 c5         1 TTE       0.329500
     11 C7          -2.5080     0.6870    -4.4390 c5         1 TTE      -0.153400
     12 C3          -3.1790    -0.0950    -3.3100 c5         1 TTE       0.096100
     13 O3          -4.5400     0.2020    -3.1190 oh         1 TTE      -0.584800
     14 C8          -2.3980     0.3560    -2.0750 c5         1 TTE       0.140100
     15 O6          -1.1140     0.7530    -2.5300 os         1 TTE      -0.336600
     16 C9          -2.2580    -0.7260    -1.0320 c3         1 TTE       0.216400
     17 O5          -1.6750    -0.1930     0.1340 os         1 TTE      -0.532200
     18 PA          -0.6850    -1.1910     1.0130 p5         1 TTE       1.453800
     19 O1A          0.5380    -1.4890     0.2000 o          1 TTE      -0.870000
     20 O2A         -1.5040    -2.3280     1.5520 o          1 TTE      -0.870000
     21 O3A         -0.3880    -0.0680     2.1460 os         1 TTE      -0.710800
     22 PB           0.2290    -0.4170     3.6860 p5         1 TTE       1.345600
     23 O1B          1.1420    -1.6050     3.5250 o          1 TTE      -0.862000
     24 O2B         -0.9580    -0.5170     4.6060 o          1 TTE      -0.862000
     25 CC           1.1490     1.1180     3.9510 c3         1 TTE      -0.380800
     26 PG           1.7080     1.4270     5.7140 p5         1 TTE       1.158700
     27 O1G          2.2780     0.0890     6.1960 o          1 TTE      -0.916167
     28 O2G          2.7690     2.5300     5.5760 o          1 TTE      -0.916167
     29 O3G          0.4610     1.8860     6.4770 o          1 TTE      -0.916167
     30 HN3          1.3250    -2.3980    -5.2980 hn         1 TTE       0.322500
     31 H5M1         3.3690     1.5770    -7.1750 hc         1 TTE       0.017700
     32 H5M2         3.0160     2.7180    -5.8780 hc         1 TTE       0.017700
     33 H5M3         4.2000     1.4360    -5.6350 hc         1 TTE       0.017700
     34 H6           0.8780     2.2990    -4.8720 h4         1 TTE       0.132000
     35 H1          -0.9610     2.1370    -4.0320 h2         1 TTE       0.037700
     36 H2'1        -3.0710     1.6050    -4.6190 hc         1 TTE       0.036700
     37 H2'2        -2.4610     0.1430    -5.3810 hc         1 TTE       0.036700
     38 H3          -3.0390    -1.1680    -3.4670 h1         1 TTE       0.070700
     39 HO'3        -5.0430    -0.2330    -3.8130 ho         1 TTE       0.371000
     40 H4          -2.9160     1.2230    -1.6400 h1         1 TTE       0.062700
     41 H5'1        -3.2570    -1.1240    -0.8150 h1         1 TTE       0.016200
     42 H5'2        -1.6640    -1.5420    -1.4590 h1         1 TTE       0.016200
     43 HCC1         2.0230     1.0980     3.2920 hc         1 TTE       0.032700
     44 HCC2         0.5400     1.9670     3.6220 hc         1 TTE       0.032700
@<TRIPOS>BOND
     1     1     2 1   
     2     1     9 1   
     3     1    10 1   
     4     2     3 2   
     5     2     4 1   
     6     4     5 1   
     7     4    30 1   
     8     5     6 2   
     9     5     7 1   
    10     7     8 1   
    11     7     9 2   
    12     8    31 1   
    13     8    32 1   
    14     8    33 1   
    15     9    34 1   
    16    10    11 1   
    17    10    15 1   
    18    10    35 1   
    19    11    12 1   
    20    11    36 1   
    21    11    37 1   
    22    12    13 1   
    23    12    14 1   
    24    12    38 1   
    25    13    39 1   
    26    14    15 1   
    27    14    16 1   
    28    14    40 1   
    29    16    17 1   
    30    16    41 1   
    31    16    42 1   
    32    17    18 1   
    33    18    19 1   
    34    18    20 1   
    35    18    21 1   
    36    21    22 1   
    37    22    23 1   
    38    22    24 1   
    39    22    25 1   
    40    25    26 1   
    41    25    43 1   
    42    25    44 1   
    43    26    27 1   
    44    26    28 1   
    45    26    29 1   
@<TRIPOS>SUBSTRUCTURE
     1 TTE         1 TEMP              0 ****  ****    0 ROOT
