@<TRIPOS>MOLECULE
TTF
   19    19     1     0     0
SMALL
No Charge or Current Charge


@<TRIPOS>ATOM
      1 C1           4.1560     0.8120    -0.0570 cc         1 TTF      -0.147000
      2 C2           2.9760     0.8800     0.7220 cc         1 TTF      -0.045000
      3 C3           1.9650     0.0720     0.2570 cd         1 TTF      -0.330600
      4 S1           2.4710    -0.8130    -1.1980 ss         1 TTF       0.241000
      5 C4           4.0660    -0.0430    -1.1250 cd         1 TTF      -0.221000
      6 C5           0.6280    -0.0160     0.8940 c          1 TTF       0.624700
      7 O1           0.3570     0.6560     1.8780 o          1 TTF      -0.501100
      8 C6          -0.4250    -0.9390     0.3100 c3         1 TTF      -0.287400
      9 C7          -1.2840    -0.1050    -0.6330 c          1 TTF       0.535100
     10 C8          -2.6840     0.3350    -0.1230 c3         1 TTF       0.204000
     11 O2          -0.8740     0.1760    -1.7530 o          1 TTF      -0.425100
     12 F1          -2.6000     1.0230     1.0390 f          1 TTF      -0.100667
     13 F2          -3.4850    -0.7340     0.0950 f          1 TTF      -0.100667
     14 F3          -3.3180     1.1340    -1.0150 f          1 TTF      -0.100667
     15 H1           5.0420     1.3930     0.1830 ha         1 TTF       0.143000
     16 H2           2.9000     1.5200     1.5980 ha         1 TTF       0.154000
     17 H4           4.8180    -0.2740    -1.8690 h4         1 TTF       0.156000
     18 H61         -1.0430    -1.3180     1.1310 hc         1 TTF       0.100200
     19 H62          0.0460    -1.7320    -0.2770 hc         1 TTF       0.100200
@<TRIPOS>BOND
     1     1     2 1   
     2     1     5 2   
     3     1    15 1   
     4     2     3 2   
     5     2    16 1   
     6     3     4 1   
     7     3     6 1   
     8     4     5 1   
     9     5    17 1   
    10     6     7 2   
    11     6     8 1   
    12     8     9 1   
    13     8    18 1   
    14     8    19 1   
    15     9    10 1   
    16     9    11 2   
    17    10    12 1   
    18    10    13 1   
    19    10    14 1   
@<TRIPOS>SUBSTRUCTURE
     1 TTF         1 TEMP              0 ****  ****    0 ROOT
