@<TRIPOS>MOLECULE
TTF
   19    19     1     0     0
SMALL
bcc


@<TRIPOS>ATOM
      1 C1           4.2960     0.4810     0.3550 cc         1 TTF      -0.165000
      2 C2           3.0270     1.0670     0.5350 cc         1 TTF      -0.063000
      3 C3           2.0110     0.3050     0.0110 cd         1 TTF      -0.185700
      4 S1           2.6270    -1.1450    -0.6910 ss         1 TTF      -0.048800
      5 C4           4.2270    -0.7200    -0.2950 cd         1 TTF      -0.094100
      6 C5           0.5920     0.6480     0.0310 c          1 TTF       0.624700
      7 O1           0.1950     1.6840     0.5190 o          1 TTF      -0.501100
      8 C6          -0.3730    -0.3460    -0.5950 c3         1 TTF      -0.287400
      9 C7          -1.7500     0.2590    -0.6680 c          1 TTF       0.535100
     10 C8          -2.7200    -0.1260     0.4600 c3         1 TTF       0.567900
     11 O2          -2.1140     0.9980    -1.5350 o          1 TTF      -0.425100
     12 F1          -2.1760     0.1060     1.6530 f          1 TTF      -0.221967
     13 F2          -2.9930    -1.4310     0.3770 f          1 TTF      -0.221967
     14 F3          -3.8590     0.5460     0.3790 f          1 TTF      -0.221967
     15 H1           5.2240     0.9300     0.6770 ha         1 TTF       0.161000
     16 H2           2.8610     2.0170     1.0250 ha         1 TTF       0.172000
     17 H4           5.0430    -1.3750    -0.5710 h4         1 TTF       0.174000
     18 H61         -0.3580    -1.2670    -0.0040 hc         1 TTF       0.100200
     19 H62         -0.0490    -0.6070    -1.6050 hc         1 TTF       0.100200
@<TRIPOS>BOND
     1     1     2 1   
     2     1     5 2   
     3     1    15 1   
     4     2     3 2   
     5     2    16 1   
     6     3     4 1   
     7     3     6 1   
     8     4     5 1   
     9     5    17 1   
    10     6     7 2   
    11     6     8 1   
    12     8     9 1   
    13     8    18 1   
    14     8    19 1   
    15     9    10 1   
    16     9    11 2   
    17    10    12 1   
    18    10    13 1   
    19    10    14 1   
@<TRIPOS>SUBSTRUCTURE
     1 TTF         1 TEMP              0 ****  ****    0 ROOT
