@<TRIPOS>MOLECULE
TTG
   56    59     1     0     0
SMALL
bcc


@<TRIPOS>ATOM
      1 C25         -2.5570     0.0930    -4.1290 c3         1 TTG      -0.081400
      2 C31         -3.5100     0.2080    -5.3130 c3         1 TTG      -0.075100
      3 C21         -1.0700     0.0680    -4.5240 c3         1 TTG       0.029000
      4 O24         -0.8590    -1.0010    -5.4300 oh         1 TTG      -0.570800
      5 C16         -0.1390    -0.0860    -3.3180 cc         1 TTG       0.035800
      6 C20         -0.7530     1.4290    -5.2110 c          1 TTG       0.947600
      7 C15          1.2050    -0.3610    -3.4810 cd         1 TTG      -0.221400
      8 C17         -0.6700     0.0350    -2.0080 cc         1 TTG      -0.131000
      9 O23         -0.5720     1.4360    -6.4370 o          1 TTG      -0.802300
     10 O22         -0.7470     2.3970    -4.4300 o          1 TTG      -0.802300
     11 C14          2.0670    -0.5900    -2.3380 c          1 TTG       0.704700
     12 C19          1.8950    -0.4750    -4.8180 c3         1 TTG       0.185600
     13 C13          0.1500    -0.1490    -0.9460 cd         1 TTG      -0.068200
     14 O18          3.2630    -0.8790    -2.3910 o          1 TTG      -0.670500
     15 N12          1.4640    -0.4530    -1.1110 n          1 TTG      -0.349000
     16 C9          -0.0980    -0.0800     0.4860 ca         1 TTG       0.468100
     17 C11          2.1860    -0.6190     0.1480 c5         1 TTG       0.143300
     18 C8           1.1120    -0.3560     1.1540 ca         1 TTG      -0.201600
     19 N10         -1.2300     0.1920     1.0650 nb         1 TTG      -0.619000
     20 C7           1.1350    -0.3410     2.5150 ca         1 TTG      -0.096000
     21 C5          -1.2310     0.2160     2.4160 ca         1 TTG       0.363600
     22 C6          -0.0670    -0.0370     3.2080 ca         1 TTG      -0.087300
     23 C4          -2.4510     0.5120     3.0640 ca         1 TTG      -0.124300
     24 C1          -0.1530     0.0180     4.6230 ca         1 TTG      -0.212300
     25 C3          -2.5170     0.5750     4.4220 ca         1 TTG      -0.165000
     26 C2          -1.3680     0.3340     5.2130 ca         1 TTG       0.182100
     27 C27          1.0170    -0.3150     5.5170 c3         1 TTG       0.211100
     28 N28          1.0790     0.5690     6.6810 n3         1 TTG      -0.740600
     29 C29          1.9400     0.0240     7.7170 c3         1 TTG       0.144100
     30 C30          1.4840     1.9170     6.3120 c3         1 TTG       0.144100
     31 O26         -1.5070     0.4280     6.5380 oh         1 TTG      -0.538100
     32 O19          1.9090    -1.7940    -5.3250 oh         1 TTG      -0.609800
     33 H251        -2.7410     0.9260    -3.4520 hc         1 TTG       0.028700
     34 H252        -2.7970    -0.8190    -3.5680 hc         1 TTG       0.028700
     35 H311        -4.5400     0.1830    -4.9570 hc         1 TTG       0.029367
     36 H312        -3.3780     1.1430    -5.8580 hc         1 TTG       0.029367
     37 H313        -3.3880    -0.6110    -6.0200 hc         1 TTG       0.029367
     38 H241        -1.2730    -1.7860    -5.0520 ho         1 TTG       0.364000
     39 H171        -1.7060     0.2650    -1.8210 ha         1 TTG       0.162000
     40 H191         1.4530     0.2160    -5.5370 h1         1 TTG       0.071200
     41 H192         2.9360    -0.1750    -4.6980 h1         1 TTG       0.071200
     42 H111         2.6020    -1.6250     0.2230 h1         1 TTG       0.074200
     43 H112         3.0120     0.0920     0.2130 h1         1 TTG       0.074200
     44 H71          2.0510    -0.5550     3.0470 ha         1 TTG       0.132000
     45 H41         -3.3260     0.6990     2.4560 ha         1 TTG       0.153000
     46 H31         -3.4490     0.8140     4.9190 ha         1 TTG       0.144000
     47 H271         0.8990    -1.3390     5.8850 h1         1 TTG       0.045200
     48 H272         1.9680    -0.2950     4.9730 h1         1 TTG       0.045200
     49 H291         1.9490     0.6930     8.5760 h1         1 TTG       0.039700
     50 H292         1.5640    -0.9450     8.0440 h1         1 TTG       0.039700
     51 H293         2.9740    -0.1040     7.3730 h1         1 TTG       0.039700
     52 H301         1.4270     2.5690     7.1820 h1         1 TTG       0.039700
     53 H302         2.5100     1.9460     5.9240 h1         1 TTG       0.039700
     54 H303         0.8220     2.3180     5.5450 h1         1 TTG       0.039700
     55 H261        -0.5750     0.5000     6.9110 ho         1 TTG       0.478000
     56 H19O         0.9920    -1.9740    -5.5610 ho         1 TTG       0.409000
@<TRIPOS>BOND
     1     1     2 1   
     2     1     3 1   
     3     1    33 1   
     4     1    34 1   
     5     2    35 1   
     6     2    36 1   
     7     2    37 1   
     8     3     4 1   
     9     3     5 1   
    10     3     6 1   
    11     4    38 1   
    12     5     7 2   
    13     5     8 1   
    14     6     9 1   
    15     6    10 1   
    16     7    11 1   
    17     7    12 1   
    18     8    13 2   
    19     8    39 1   
    20    11    14 2   
    21    11    15 1   
    22    12    32 1   
    23    12    40 1   
    24    12    41 1   
    25    13    15 1   
    26    13    16 1   
    27    15    17 1   
    28    16    18 ar  
    29    16    19 ar  
    30    17    18 1   
    31    17    42 1   
    32    17    43 1   
    33    18    20 ar  
    34    19    21 ar  
    35    20    22 ar  
    36    20    44 1   
    37    21    22 ar  
    38    21    23 ar  
    39    22    24 ar  
    40    23    25 ar  
    41    23    45 1   
    42    24    26 ar  
    43    24    27 1   
    44    25    26 ar  
    45    25    46 1   
    46    26    31 1   
    47    27    28 1   
    48    27    47 1   
    49    27    48 1   
    50    28    29 1   
    51    28    30 1   
    52    29    49 1   
    53    29    50 1   
    54    29    51 1   
    55    30    52 1   
    56    30    53 1   
    57    30    54 1   
    58    31    55 1   
    59    32    56 1   
@<TRIPOS>SUBSTRUCTURE
     1 TTG         1 TEMP              0 ****  ****    0 ROOT
