@<TRIPOS>MOLECULE
TTG
   56    59     1     0     0
SMALL
No Charge or Current Charge


@<TRIPOS>ATOM
      1 C25         -2.5780     0.2830    -4.1690 c3         1 TTG      -0.081400
      2 C31         -3.5800     0.4430    -5.3390 c3         1 TTG      -0.075100
      3 C21         -1.0940    -0.0120    -4.5810 c3         1 TTG       0.052200
      4 O24         -1.1460    -1.2970    -5.2650 oh         1 TTG      -0.633000
      5 C16         -0.1130    -0.1690    -3.3920 cc         1 TTG       0.035800
      6 C20         -0.6280     1.1820    -5.5240 c          1 TTG       0.737000
      7 C15          1.2620    -0.4470    -3.5430 cd         1 TTG      -0.221400
      8 C17         -0.6070    -0.0400    -2.0310 cc         1 TTG      -0.181000
      9 O23         -0.4840     0.9830    -6.7260 o          1 TTG      -0.697000
     10 O22         -0.3650     2.2600    -5.0030 o          1 TTG      -0.697000
     11 C14          2.1880    -0.5980    -2.3660 c          1 TTG       0.562200
     12 C19          1.9630    -0.6080    -4.8820 c3         1 TTG       0.208800
     13 C13          0.2440    -0.1820    -0.9680 cd         1 TTG      -0.068200
     14 O18          3.3890    -0.8310    -2.4500 o          1 TTG      -0.595000
     15 N12          1.5800    -0.4480    -1.1170 n          1 TTG      -0.282000
     16 C9          -0.0130    -0.0980     0.4570 ca         1 TTG       0.402800
     17 C11          2.3330    -0.5640     0.1700 c5         1 TTG       0.143300
     18 C8           1.1720    -0.3140     1.1290 ca         1 TTG      -0.136300
     19 N10         -1.2040     0.1290     1.0380 nb         1 TTG      -0.619000
     20 C7           1.1820    -0.2900     2.5280 ca         1 TTG      -0.078000
     21 C5          -1.2240     0.1570     2.3950 ca         1 TTG       0.233000
     22 C6          -0.0470    -0.0340     3.1970 ca         1 TTG      -0.022000
     23 C4          -2.4560     0.3700     3.0360 ca         1 TTG      -0.041000
     24 C1          -0.1310     0.0200     4.6220 ca         1 TTG      -0.212300
     25 C3          -2.5470     0.3880     4.4330 ca         1 TTG      -0.147000
     26 C2          -1.4010     0.2130     5.2130 ca         1 TTG       0.182100
     27 C27          1.1090    -0.1910     5.5200 c3         1 TTG       0.211100
     28 N28          1.0730     0.5530     6.8070 n3         1 TTG      -0.740600
     29 C29          2.0540     0.0280     7.7860 c3         1 TTG       0.144100
     30 C30          1.2120     2.0200     6.6210 c3         1 TTG       0.144100
     31 O26         -1.5180     0.2460     6.5630 oh         1 TTG      -0.577100
     32 O19          1.4850    -1.7730    -5.5540 oh         1 TTG      -0.672000
     33 H251        -2.6130     1.2080    -3.5810 hc         1 TTG       0.028700
     34 H252        -2.9490    -0.5230    -3.5240 hc         1 TTG       0.028700
     35 H311        -4.5890     0.6180    -4.9480 hc         1 TTG       0.029367
     36 H312        -3.3170     1.2960    -5.9750 hc         1 TTG       0.029367
     37 H313        -3.6140    -0.4580    -5.9630 hc         1 TTG       0.029367
     38 H241        -1.7770    -1.8600    -4.7670 ho         1 TTG       0.403000
     39 H171        -1.6490     0.1700    -1.8200 ha         1 TTG       0.212000
     40 H191         1.7880     0.2870    -5.4910 h1         1 TTG       0.071200
     41 H192         3.0540    -0.6690    -4.7700 h1         1 TTG       0.071200
     42 H111         2.7710    -1.5610     0.3030 h1         1 TTG       0.074200
     43 H112         3.1150     0.2020     0.2600 h1         1 TTG       0.074200
     44 H71          2.1160    -0.4760     3.0470 ha         1 TTG       0.114000
     45 H41         -3.3530     0.5110     2.4380 ha         1 TTG       0.135000
     46 H31         -3.5110     0.5440     4.9110 ha         1 TTG       0.126000
     47 H271         1.1880    -1.2690     5.7150 h1         1 TTG       0.045200
     48 H272         2.0230     0.1050     4.9950 h1         1 TTG       0.045200
     49 H291         1.9630     0.5530     8.7470 h1         1 TTG       0.039700
     50 H292         1.8870    -1.0410     7.9700 h1         1 TTG       0.039700
     51 H293         3.0820     0.1570     7.4200 h1         1 TTG       0.039700
     52 H301         1.1100     2.5440     7.5800 h1         1 TTG       0.039700
     53 H302         2.1940     2.2700     6.1960 h1         1 TTG       0.039700
     54 H303         0.4390     2.4060     5.9430 h1         1 TTG       0.039700
     55 H261        -0.5680     0.3310     6.8730 ho         1 TTG       0.517000
     56 H19O         0.4950    -1.6710    -5.5480 ho         1 TTG       0.448000
@<TRIPOS>BOND
     1     1     2 1   
     2     1     3 1   
     3     1    33 1   
     4     1    34 1   
     5     2    35 1   
     6     2    36 1   
     7     2    37 1   
     8     3     4 1   
     9     3     5 1   
    10     3     6 1   
    11     4    38 1   
    12     5     7 2   
    13     5     8 1   
    14     6     9 1   
    15     6    10 1   
    16     7    11 1   
    17     7    12 1   
    18     8    13 2   
    19     8    39 1   
    20    11    14 2   
    21    11    15 1   
    22    12    32 1   
    23    12    40 1   
    24    12    41 1   
    25    13    15 1   
    26    13    16 1   
    27    15    17 1   
    28    16    18 ar  
    29    16    19 ar  
    30    17    18 1   
    31    17    42 1   
    32    17    43 1   
    33    18    20 ar  
    34    19    21 ar  
    35    20    22 ar  
    36    20    44 1   
    37    21    22 ar  
    38    21    23 ar  
    39    22    24 ar  
    40    23    25 ar  
    41    23    45 1   
    42    24    26 ar  
    43    24    27 1   
    44    25    26 ar  
    45    25    46 1   
    46    26    31 1   
    47    27    28 1   
    48    27    47 1   
    49    27    48 1   
    50    28    29 1   
    51    28    30 1   
    52    29    49 1   
    53    29    50 1   
    54    29    51 1   
    55    30    52 1   
    56    30    53 1   
    57    30    54 1   
    58    31    55 1   
    59    32    56 1   
@<TRIPOS>SUBSTRUCTURE
     1 TTG         1 TEMP              0 ****  ****    0 ROOT
