@<TRIPOS>MOLECULE
TTJ
   41    43     1     0     0
SMALL
No Charge or Current Charge


@<TRIPOS>ATOM
      1 CAD         -4.6570    -0.8700     0.5410 c6         1 TTJ       0.122600
      2 OAC         -6.0950    -0.9530     0.3820 os         1 TTJ      -0.442000
      3 CAT         -6.7630     0.3180     0.5820 c6         1 TTJ       0.112600
      4 CAB         -6.2130     1.3550    -0.4330 c6         1 TTJ       0.116600
      5 OAA         -4.7770     1.4650    -0.2780 os         1 TTJ      -0.416000
      6 CAS         -4.0830     0.1920    -0.4480 c6         1 TTJ       0.048300
      7 CAQ         -2.5270     0.3370    -0.4290 c          1 TTJ       0.617100
      8 OAR         -1.9870     1.4150    -0.6480 o          1 TTJ      -0.524100
      9 NAP         -1.8010    -0.8120    -0.1270 ns         1 TTJ      -0.406100
     10 CAN         -0.4250    -0.9700     0.0090 cc         1 TTJ      -0.005400
     11 CAO          0.5670    -0.0410    -0.1090 cd         1 TTJ      -0.219000
     12 NAM          0.2530    -2.1470     0.3020 na         1 TTJ      -0.038200
     13 NAL          1.6290    -1.9870     0.3700 nc         1 TTJ      -0.517800
     14 CAK          1.8000    -0.6960     0.1190 cd         1 TTJ       0.325500
     15 CAJ          3.1480    -0.0790     0.0880 ca         1 TTJ      -0.115500
     16 CAE          4.3130    -0.8800     0.1260 ca         1 TTJ      -0.091500
     17 CAF          5.5940    -0.2960     0.1140 ca         1 TTJ      -0.079800
     18 CAU          6.8350    -1.1760     0.1430 c3         1 TTJ      -0.045300
     19 CAG          5.7190     1.1030     0.0680 ca         1 TTJ      -0.105000
     20 CAH          4.5740     1.9180     0.0440 ca         1 TTJ      -0.079800
     21 CAV          4.7130     3.4320     0.0010 c3         1 TTJ      -0.045300
     22 CAI          3.2970     1.3260     0.0570 ca         1 TTJ      -0.091500
     23 H1          -4.4160    -0.5960     1.5790 h1         1 TTJ       0.064200
     24 H2          -4.2330    -1.8640     0.3390 h1         1 TTJ       0.064200
     25 H3          -7.8440     0.1850     0.4340 h1         1 TTJ       0.061700
     26 H4          -6.5960     0.6660     1.6120 h1         1 TTJ       0.061700
     27 H5          -6.4500     1.0450    -1.4610 h1         1 TTJ       0.061200
     28 H6          -6.6720     2.3380    -0.2540 h1         1 TTJ       0.061200
     29 H7          -4.3010    -0.1700    -1.4630 h1         1 TTJ       0.050700
     30 H8          -2.3740    -1.6360     0.0030 hn         1 TTJ       0.320500
     31 H9           0.4430     1.0070    -0.3420 ha         1 TTJ       0.170000
     32 H10         -0.1750    -3.0570     0.4580 hn         1 TTJ       0.367000
     33 H11          4.2300    -1.9640     0.1580 ha         1 TTJ       0.121000
     34 H12          7.1310    -1.4660    -0.8720 hc         1 TTJ       0.041033
     35 H13          7.6840    -0.6570     0.6040 hc         1 TTJ       0.041033
     36 H14          6.6610    -2.0940     0.7160 hc         1 TTJ       0.041033
     37 H15          6.7070     1.5570     0.0530 ha         1 TTJ       0.108000
     38 H16          4.6760     3.7980    -1.0320 hc         1 TTJ       0.041033
     39 H17          3.9070     3.9230     0.5590 hc         1 TTJ       0.041033
     40 H18          5.6630     3.7620     0.4390 hc         1 TTJ       0.041033
     41 H19          2.4230     1.9710     0.0450 ha         1 TTJ       0.121000
@<TRIPOS>BOND
     1     1     2 1   
     2     1     6 1   
     3     1    23 1   
     4     1    24 1   
     5     2     3 1   
     6     3     4 1   
     7     3    25 1   
     8     3    26 1   
     9     4     5 1   
    10     4    27 1   
    11     4    28 1   
    12     5     6 1   
    13     6     7 1   
    14     6    29 1   
    15     7     8 2   
    16     7     9 1   
    17     9    10 1   
    18     9    30 1   
    19    10    11 2   
    20    10    12 1   
    21    11    14 1   
    22    11    31 1   
    23    12    13 1   
    24    12    32 1   
    25    13    14 2   
    26    14    15 1   
    27    15    16 ar  
    28    15    22 ar  
    29    16    17 ar  
    30    16    33 1   
    31    17    18 1   
    32    17    19 ar  
    33    18    34 1   
    34    18    35 1   
    35    18    36 1   
    36    19    20 ar  
    37    19    37 1   
    38    20    21 1   
    39    20    22 ar  
    40    21    38 1   
    41    21    39 1   
    42    21    40 1   
    43    22    41 1   
@<TRIPOS>SUBSTRUCTURE
     1 TTJ         1 TEMP              0 ****  ****    0 ROOT
