@<TRIPOS>MOLECULE
TTJ
   41    43     1     0     0
SMALL
bcc


@<TRIPOS>ATOM
      1 CAD         -4.5410    -0.4610     1.0830 c6         1 TTJ       0.099400
      2 OAC         -5.9330    -0.6600     1.0910 os         1 TTJ      -0.395600
      3 CAT         -6.6120     0.5020     0.6550 c6         1 TTJ       0.089400
      4 CAB         -6.1490     0.8970    -0.7310 c6         1 TTJ       0.093400
      5 OAA         -4.7450     1.0860    -0.7550 os         1 TTJ      -0.369600
      6 CAS         -4.0730    -0.0630    -0.3200 c6         1 TTJ       0.025100
      7 CAQ         -2.5870     0.2500    -0.3010 c          1 TTJ       0.684100
      8 OAR         -2.1510     1.3730    -0.1770 o          1 TTJ      -0.524100
      9 NAP         -1.8070    -0.8600    -0.3840 ns         1 TTJ      -0.473100
     10 CAN         -0.4290    -0.8690    -0.2990 cc         1 TTJ       0.045300
     11 CAO          0.5190     0.1250    -0.1840 cd         1 TTJ      -0.302300
     12 NAM          0.2400    -2.0370    -0.3260 na         1 TTJ      -0.038600
     13 NAL          1.5580    -1.8790    -0.2370 nc         1 TTJ      -0.517800
     14 CAK          1.7470    -0.5740    -0.1490 cd         1 TTJ       0.390800
     15 CAJ          3.0970    -0.0130    -0.0300 ca         1 TTJ      -0.115500
     16 CAE          4.2110    -0.8500     0.0190 ca         1 TTJ      -0.109500
     17 CAF          5.4950    -0.3300     0.1420 ca         1 TTJ      -0.079800
     18 CAU          6.6870    -1.2420     0.1680 c3         1 TTJ      -0.045300
     19 CAG          5.6540     1.0510     0.2200 ca         1 TTJ      -0.123000
     20 CAH          4.5610     1.9110     0.1690 ca         1 TTJ      -0.079800
     21 CAV          4.7570     3.3990     0.2250 c3         1 TTJ      -0.045300
     22 CAI          3.2880     1.3660     0.0450 ca         1 TTJ      -0.109500
     23 H1          -4.2550     0.3250     1.7970 h1         1 TTJ       0.064200
     24 H2          -4.0710    -1.3940     1.3970 h1         1 TTJ       0.064200
     25 H3          -7.6790     0.2780     0.6470 h1         1 TTJ       0.061700
     26 H4          -6.4420     1.3300     1.3580 h1         1 TTJ       0.061700
     27 H5          -6.4420     0.1270    -1.4570 h1         1 TTJ       0.061200
     28 H6          -6.6080     1.8400    -1.0310 h1         1 TTJ       0.061200
     29 H7          -4.2670    -0.9050    -1.0040 h1         1 TTJ       0.050700
     30 H8          -2.2600    -1.7470    -0.5530 hn         1 TTJ       0.320500
     31 H9           0.3570     1.1850    -0.1380 ha         1 TTJ       0.188000
     32 H10         -0.1480    -2.9640    -0.4000 hn         1 TTJ       0.316700
     33 H11          4.0760    -1.9230    -0.0320 ha         1 TTJ       0.139000
     34 H12          7.0710    -1.4100    -0.8410 hc         1 TTJ       0.041033
     35 H13          7.5020    -0.8220     0.7560 hc         1 TTJ       0.041033
     36 H14          6.4360    -2.2170     0.5860 hc         1 TTJ       0.041033
     37 H15          6.6510     1.4650     0.3300 ha         1 TTJ       0.126000
     38 H16          5.0590     3.7900    -0.7490 hc         1 TTJ       0.041033
     39 H17          3.8400     3.9140     0.5120 hc         1 TTJ       0.041033
     40 H18          5.5360     3.6730     0.9360 hc         1 TTJ       0.041033
     41 H19          2.4350     2.0340     0.0140 ha         1 TTJ       0.139000
@<TRIPOS>BOND
     1     1     2 1   
     2     1     6 1   
     3     1    23 1   
     4     1    24 1   
     5     2     3 1   
     6     3     4 1   
     7     3    25 1   
     8     3    26 1   
     9     4     5 1   
    10     4    27 1   
    11     4    28 1   
    12     5     6 1   
    13     6     7 1   
    14     6    29 1   
    15     7     8 2   
    16     7     9 1   
    17     9    10 1   
    18     9    30 1   
    19    10    11 2   
    20    10    12 1   
    21    11    14 1   
    22    11    31 1   
    23    12    13 1   
    24    12    32 1   
    25    13    14 2   
    26    14    15 1   
    27    15    16 ar  
    28    15    22 ar  
    29    16    17 ar  
    30    16    33 1   
    31    17    18 1   
    32    17    19 ar  
    33    18    34 1   
    34    18    35 1   
    35    18    36 1   
    36    19    20 ar  
    37    19    37 1   
    38    20    21 1   
    39    20    22 ar  
    40    21    38 1   
    41    21    39 1   
    42    21    40 1   
    43    22    41 1   
@<TRIPOS>SUBSTRUCTURE
     1 TTJ         1 TEMP              0 ****  ****    0 ROOT
