@<TRIPOS>MOLECULE
TTL
   25    26     1     0     0
SMALL
No Charge or Current Charge


@<TRIPOS>ATOM
      1 OAB          1.2700    -2.0870     0.5150 oh         1 TTL      -0.663000
      2 CAL          1.0210    -0.8810    -0.2340 c6         1 TTL       0.219600
      3 CAJ         -0.4620    -0.4600    -0.1260 ca         1 TTL      -0.098300
      4 CAF         -1.4810    -1.4290    -0.2710 ca         1 TTL      -0.095000
      5 CAD         -2.8350    -1.0640    -0.1940 ca         1 TTL      -0.114000
      6 CAC         -3.1900     0.2760     0.0200 ca         1 TTL      -0.105000
      7 CAE         -2.1900     1.2520     0.1450 ca         1 TTL      -0.113000
      8 CAI         -0.8290     0.8990     0.0640 ca         1 TTL      -0.065300
      9 CAG          0.2220     2.0080     0.1930 c6         1 TTL      -0.033100
     10 CAH          1.6100     1.6060    -0.3470 c6         1 TTL      -0.074400
     11 CAK          2.0220     0.2360     0.2240 c6         1 TTL       0.162500
     12 NAA          3.4270    -0.0850    -0.1460 n8         1 TTL      -1.004200
     13 HAB          0.7280    -2.7890     0.0980 ho         1 TTL       0.445000
     14 HAL          1.2110    -1.0700    -1.3020 h1         1 TTL       0.053700
     15 HAF         -1.2310    -2.4710    -0.4500 ha         1 TTL       0.109000
     16 HAD         -3.6090    -1.8200    -0.3020 ha         1 TTL       0.112000
     17 HAC         -4.2390     0.5590     0.0810 ha         1 TTL       0.112000
     18 HAE         -2.4740     2.2900     0.3020 ha         1 TTL       0.110000
     19 HAG1         0.3120     2.2870     1.2520 hc         1 TTL       0.050200
     20 HAG2        -0.1200     2.9110    -0.3310 hc         1 TTL       0.050200
     21 HAH1         2.3460     2.3760    -0.0770 hc         1 TTL       0.050700
     22 HAH2         1.5840     1.5620    -1.4450 hc         1 TTL       0.050700
     23 HAK          1.9880     0.2930     1.3230 h1         1 TTL       0.035700
     24 HAA1         4.0570     0.4790     0.4370 hn         1 TTL       0.400500
     25 HAA2         3.6120    -1.0460     0.1660 hn         1 TTL       0.400500
@<TRIPOS>BOND
     1     1     2 1   
     2     1    13 1   
     3     2     3 1   
     4     2    11 1   
     5     2    14 1   
     6     3     4 ar  
     7     3     8 ar  
     8     4     5 ar  
     9     4    15 1   
    10     5     6 ar  
    11     5    16 1   
    12     6     7 ar  
    13     6    17 1   
    14     7     8 ar  
    15     7    18 1   
    16     8     9 1   
    17     9    10 1   
    18     9    19 1   
    19     9    20 1   
    20    10    11 1   
    21    10    21 1   
    22    10    22 1   
    23    11    12 1   
    24    11    23 1   
    25    12    24 1   
    26    12    25 1   
@<TRIPOS>SUBSTRUCTURE
     1 TTL         1 TEMP              0 ****  ****    0 ROOT
