@<TRIPOS>MOLECULE
TTL
   25    26     1     0     0
SMALL
abcg2


@<TRIPOS>ATOM
      1 OAB          1.2300    -2.0790     0.3850 oh         1 TTL      -0.663000
      2 CAL          0.9860    -0.8490    -0.2700 c6         1 TTL       0.219600
      3 CAJ         -0.4650    -0.4230    -0.1270 ca         1 TTL      -0.098300
      4 CAF         -1.4720    -1.3870    -0.1900 ca         1 TTL      -0.095000
      5 CAD         -2.8090    -1.0380    -0.1060 ca         1 TTL      -0.114000
      6 CAC         -3.1630     0.2970     0.0500 ca         1 TTL      -0.105000
      7 CAE         -2.1710     1.2600     0.1190 ca         1 TTL      -0.113000
      8 CAI         -0.8210     0.9190     0.0320 ca         1 TTL      -0.065300
      9 CAG          0.2230     2.0000     0.1460 c6         1 TTL      -0.033100
     10 CAH          1.5940     1.5460    -0.3260 c6         1 TTL      -0.074400
     11 CAK          1.9470     0.1960     0.2790 c6         1 TTL       0.162500
     12 NAA          3.3080    -0.1740    -0.0700 n8         1 TTL      -1.004200
     13 HAB          1.1700    -2.7920    -0.2560 ho         1 TTL       0.445000
     14 HAL          1.2040    -0.9490    -1.3420 h1         1 TTL       0.053700
     15 HAF         -1.2140    -2.4320    -0.3080 ha         1 TTL       0.109000
     16 HAD         -3.5730    -1.8030    -0.1610 ha         1 TTL       0.112000
     17 HAC         -4.2050     0.5830     0.1170 ha         1 TTL       0.112000
     18 HAE         -2.4420     2.3030     0.2450 ha         1 TTL       0.110000
     19 HAG1         0.2860     2.3150     1.1930 hc         1 TTL       0.050200
     20 HAG2        -0.0990     2.8830    -0.4090 hc         1 TTL       0.050200
     21 HAH1         2.3450     2.2900    -0.0490 hc         1 TTL       0.050700
     22 HAH2         1.6180     1.4680    -1.4180 hc         1 TTL       0.050700
     23 HAK          1.7870     0.2610     1.3690 h1         1 TTL       0.035700
     24 HAA1         3.9500     0.4980     0.3320 hn         1 TTL       0.400500
     25 HAA2         3.5370    -1.0620     0.3580 hn         1 TTL       0.400500
@<TRIPOS>BOND
     1     1     2 1   
     2     1    13 1   
     3     2     3 1   
     4     2    11 1   
     5     2    14 1   
     6     3     4 ar  
     7     3     8 ar  
     8     4     5 ar  
     9     4    15 1   
    10     5     6 ar  
    11     5    16 1   
    12     6     7 ar  
    13     6    17 1   
    14     7     8 ar  
    15     7    18 1   
    16     8     9 1   
    17     9    10 1   
    18     9    19 1   
    19     9    20 1   
    20    10    11 1   
    21    10    21 1   
    22    10    22 1   
    23    11    12 1   
    24    11    23 1   
    25    12    24 1   
    26    12    25 1   
@<TRIPOS>SUBSTRUCTURE
     1 TTL         1 TEMP              0 ****  ****    0 ROOT
