@<TRIPOS>MOLECULE
TTN
   10     9     1     0     0
SMALL
No Charge or Current Charge


@<TRIPOS>ATOM
      1 C1          -1.2630    -0.2000    -0.0750 c          1 TTN       0.716500
      2 C2           0.0090     0.3410     0.6350 c3         1 TTN      -0.100700
      3 C3           1.2050    -0.2820    -0.1380 c          1 TTN       0.716500
      4 O1          -1.7030     0.4110    -1.0410 o          1 TTN      -0.767250
      5 O2          -1.8510    -1.1470     0.4300 o          1 TTN      -0.767250
      6 O3           0.0610     1.8140     0.7390 oh         1 TTN      -0.721000
      7 O4           1.6340     0.2990    -1.1270 o          1 TTN      -0.767250
      8 O5           1.7530    -1.2670     0.3380 o          1 TTN      -0.767250
      9 H2           0.0210    -0.0790     1.6510 h1         1 TTN       0.006700
     10 HO3          0.0480     2.1490    -0.1900 ho         1 TTN       0.450000
@<TRIPOS>BOND
     1     1     2 1   
     2     1     4 1   
     3     1     5 1   
     4     2     3 1   
     5     2     6 1   
     6     2     9 1   
     7     3     7 1   
     8     3     8 1   
     9     6    10 1   
@<TRIPOS>SUBSTRUCTURE
     1 TTN         1 TEMP              0 ****  ****    0 ROOT
