@<TRIPOS>MOLECULE
TTN
   10     9     1     0     0
SMALL
bcc


@<TRIPOS>ATOM
      1 C1          -1.3320    -0.3030     0.0210 c          1 TTN       0.927100
      2 C2          -0.0840     0.3980     0.5990 c3         1 TTN      -0.123900
      3 C3           1.1590    -0.1520    -0.1410 c          1 TTN       0.927100
      4 O1          -1.8030     0.1770    -1.0270 o          1 TTN      -0.872550
      5 O2          -1.7450    -1.3080     0.6350 o          1 TTN      -0.872550
      6 O3          -0.1280     1.7930     0.4530 oh         1 TTN      -0.658800
      7 O4           1.8200     0.7130    -0.7610 o          1 TTN      -0.872550
      8 O5           1.3910    -1.3680    -0.0720 o          1 TTN      -0.872550
      9 H2           0.0110     0.1290     1.6600 h1         1 TTN       0.006700
     10 HO3          0.6240     1.9600    -0.1450 ho         1 TTN       0.411000
@<TRIPOS>BOND
     1     1     2 1   
     2     1     4 1   
     3     1     5 1   
     4     2     3 1   
     5     2     6 1   
     6     2     9 1   
     7     3     7 1   
     8     3     8 1   
     9     6    10 1   
@<TRIPOS>SUBSTRUCTURE
     1 TTN         1 TEMP              0 ****  ****    0 ROOT
