@<TRIPOS>MOLECULE
TTQ
   29    30     1     0     0
SMALL
bcc


@<TRIPOS>ATOM
      1 N            2.8470    -6.1980    46.7830 n8         1 TTQ      -0.888800
      2 CA           3.7300    -5.6480    47.8010 c3         1 TTQ       0.016500
      3 C            3.0480    -4.8200    48.9230 c          1 TTQ       0.902600
      4 O            1.8130    -4.6630    48.8610 o          1 TTQ      -0.843800
      5 CB           4.8410    -4.8200    47.1370 c3         1 TTQ       0.016800
      6 CG           4.3350    -3.6220    46.3980 cc         1 TTQ      -0.096400
      7 CD1          4.0470    -2.3940    46.9180 cd         1 TTQ      -0.096100
      8 CD2          4.0140    -3.5440    44.9990 ca         1 TTQ      -0.101800
      9 NE1          3.5640    -1.5640    45.9360 na         1 TTQ      -0.185400
     10 CE2          3.5390    -2.2400    44.7520 ca         1 TTQ      -0.065200
     11 CE3          4.1030    -4.4390    43.9280 ca         1 TTQ      -0.043000
     12 CZ2          3.1350    -1.8180    43.4830 ca         1 TTQ       0.011100
     13 CZ3          3.7270    -4.0200    42.6700 ca         1 TTQ      -0.214000
     14 CH2          3.2340    -2.7180    42.4270 ca         1 TTQ       0.115600
     15 O2           2.6870    -0.5480    43.2360 oh         1 TTQ      -0.522100
     16 N2           2.9120    -2.3230    41.1310 nv         1 TTQ      -0.800200
     17 OXT          3.8120    -4.3860    49.8120 o          1 TTQ      -0.843800
     18 H            2.1170    -6.7280    47.2440 hn         1 TTQ       0.328300
     19 H2           2.3540    -5.4290    46.3420 hn         1 TTQ       0.328300
     20 HA           4.2250    -6.4960    48.2920 h1         1 TTQ       0.038700
     21 HB2          5.3940    -5.4650    46.4480 hc         1 TTQ       0.037200
     22 HB3          5.5460    -4.5130    47.9100 hc         1 TTQ       0.037200
     23 HD1          4.1470    -2.0380    47.9310 h4         1 TTQ       0.184000
     24 HE1          3.3230    -0.5970    46.0740 hn         1 TTQ       0.285700
     25 HE3          4.4600    -5.4500    44.0780 ha         1 TTQ       0.143000
     26 HZ3          3.7940    -4.7050    41.8330 ha         1 TTQ       0.116000
     27 HO2          2.0000    -0.3070    43.8680 ho         1 TTQ       0.400000
     28 HN21         2.6340    -3.0890    40.5360 hn         1 TTQ       0.370300
     29 HN22         2.2290    -1.5830    41.0840 hn         1 TTQ       0.370300
@<TRIPOS>BOND
     1     1     2 1   
     2     1    18 1   
     3     1    19 1   
     4     2     3 1   
     5     2     5 1   
     6     2    20 1   
     7     3     4 1   
     8     3    17 1   
     9     5     6 1   
    10     5    21 1   
    11     5    22 1   
    12     6     7 2   
    13     6     8 1   
    14     7     9 1   
    15     7    23 1   
    16     8    10 ar  
    17     8    11 ar  
    18     9    10 1   
    19     9    24 1   
    20    10    12 ar  
    21    11    13 ar  
    22    11    25 1   
    23    12    14 ar  
    24    12    15 1   
    25    13    14 ar  
    26    13    26 1   
    27    14    16 1   
    28    15    27 1   
    29    16    28 1   
    30    16    29 1   
@<TRIPOS>SUBSTRUCTURE
     1 TTQ         1 TEMP              0 ****  ****    0 ROOT
