@<TRIPOS>MOLECULE
TTQ
   29    30     1     0     0
SMALL
No Charge or Current Charge


@<TRIPOS>ATOM
      1 N            3.0540    -6.4160    46.6690 n8         1 TTQ      -0.888800
      2 CA           3.7850    -5.6590    47.7580 c3         1 TTQ       0.016500
      3 C            2.9090    -4.8720    48.8280 c          1 TTQ       0.902600
      4 O            1.7200    -4.6690    48.5950 o          1 TTQ      -0.843800
      5 CB           4.8700    -4.7250    47.1550 c3         1 TTQ       0.016800
      6 CG           4.3270    -3.5260    46.4140 cc         1 TTQ      -0.096400
      7 CD1          4.1090    -2.2530    46.9320 cd         1 TTQ      -0.096100
      8 CD2          3.9400    -3.4570    45.0310 ca         1 TTQ      -0.101800
      9 NE1          3.5920    -1.4080    45.9230 na         1 TTQ      -0.185400
     10 CE2          3.5070    -2.1830    44.7740 ca         1 TTQ      -0.065200
     11 CE3          3.9750    -4.4450    44.0360 ca         1 TTQ      -0.043000
     12 CZ2          3.0660    -1.8080    43.4900 ca         1 TTQ       0.011100
     13 CZ3          3.5380    -4.0990    42.7410 ca         1 TTQ      -0.214000
     14 CH2          3.0850    -2.7920    42.4620 ca         1 TTQ       0.115600
     15 O2           2.6320    -0.5280    43.2370 oh         1 TTQ      -0.522100
     16 N2           2.6680    -2.4910    41.1880 nv         1 TTQ      -0.800200
     17 OXT          3.4150    -4.5980    49.9110 o          1 TTQ      -0.843800
     18 H            2.3410    -7.0120    47.1040 hn         1 TTQ       0.328300
     19 H2           2.5060    -5.7400    46.1260 hn         1 TTQ       0.328300
     20 HA           4.3200    -6.4240    48.3370 h1         1 TTQ       0.038700
     21 HB2          5.5170    -5.3090    46.4880 hc         1 TTQ       0.037200
     22 HB3          5.5220    -4.3790    47.9660 hc         1 TTQ       0.037200
     23 HD1          4.2800    -1.8920    47.9410 h4         1 TTQ       0.184000
     24 HE1          3.3430    -0.4310    46.0300 hn         1 TTQ       0.285700
     25 HE3          4.3300    -5.4490    44.2560 ha         1 TTQ       0.143000
     26 HZ3          3.5560    -4.8500    41.9550 ha         1 TTQ       0.116000
     27 HO2          2.6870    -0.0060    44.0620 ho         1 TTQ       0.400000
     28 HN21         2.6790    -3.1890    40.4510 hn         1 TTQ       0.370300
     29 HN22         2.3400    -1.5520    40.9760 hn         1 TTQ       0.370300
@<TRIPOS>BOND
     1     1     2 1   
     2     1    18 1   
     3     1    19 1   
     4     2     3 1   
     5     2     5 1   
     6     2    20 1   
     7     3     4 1   
     8     3    17 1   
     9     5     6 1   
    10     5    21 1   
    11     5    22 1   
    12     6     7 2   
    13     6     8 1   
    14     7     9 1   
    15     7    23 1   
    16     8    10 ar  
    17     8    11 ar  
    18     9    10 1   
    19     9    24 1   
    20    10    12 ar  
    21    11    13 ar  
    22    11    25 1   
    23    12    14 ar  
    24    12    15 1   
    25    13    14 ar  
    26    13    26 1   
    27    14    16 1   
    28    15    27 1   
    29    16    28 1   
    30    16    29 1   
@<TRIPOS>SUBSTRUCTURE
     1 TTQ         1 TEMP              0 ****  ****    0 ROOT
