@<TRIPOS>MOLECULE
TTT
   43    45     1     0     0
SMALL
No Charge or Current Charge


@<TRIPOS>ATOM
      1 C1          -1.2770     1.1020    -0.9050 c          1 TTT       0.611700
      2 C3          -2.4960     0.6720    -0.0930 ca         1 TTT      -0.106600
      3 C8           2.7160    -0.1310     0.0210 ca         1 TTT      -0.020000
      4 C9           3.4770    -2.5390    -1.2410 ca         1 TTT      -0.114000
      5 C10         -3.3830     1.6110     0.5160 ca         1 TTT      -0.066300
      6 C11          3.7470    -0.9390     0.5660 ca         1 TTT      -0.041000
      7 C12          4.1240    -2.1340    -0.0690 ca         1 TTT      -0.091000
      8 C13         -2.7780    -0.7130     0.0640 ca         1 TTT      -0.160000
      9 C14          2.3610     1.0580     0.7080 ca         1 TTT      -0.099000
     10 C16         -3.1620     3.1210     0.4490 c3         1 TTT      -0.042800
     11 C19         -3.8910    -1.1540     0.7910 ca         1 TTT       0.280000
     12 C20          3.0210     1.4300     1.8920 ca         1 TTT      -0.107000
     13 C21         -4.7520    -0.2240     1.3800 ca         1 TTT      -0.156000
     14 C22          4.0440     0.6250     2.4130 ca         1 TTT      -0.106000
     15 O7          -1.1690     2.1970    -1.4400 o          1 TTT      -0.604100
     16 C17         -4.4990     1.1480     1.2430 ca         1 TTT      -0.081000
     17 N01         -4.1410    -2.4940     0.9200 nv         1 TTT      -1.069000
     18 N2          -0.2890     0.1520    -1.0460 ns         1 TTT      -0.504900
     19 C6           0.9460     0.3250    -1.8090 c3         1 TTT       0.156000
     20 C01          0.6820     0.0850    -3.3130 c3         1 TTT      -0.106100
     21 C5           2.0660    -0.5310    -1.1840 ca         1 TTT      -0.090300
     22 C18          4.4050    -0.5570     1.7510 ca         1 TTT      -0.101000
     23 C4           2.4570    -1.7500    -1.7920 ca         1 TTT      -0.098000
     24 H12          4.9140    -2.7530     0.3500 ha         1 TTT       0.114000
     25 H13         -2.1450    -1.4630    -0.4010 ha         1 TTT       0.113000
     26 H14          1.5700     1.7090     0.3490 ha         1 TTT       0.127000
     27 H16         -3.3360     3.5020    -0.5650 hc         1 TTT       0.046700
     28 H16A        -3.8420     3.6640     1.1170 hc         1 TTT       0.046700
     29 H16B        -2.1420     3.3900     0.7490 hc         1 TTT       0.046700
     30 H20          2.7370     2.3450     2.4070 ha         1 TTT       0.114000
     31 H21         -5.6180    -0.5590     1.9440 ha         1 TTT       0.114000
     32 H22          4.5540     0.9150     3.3290 ha         1 TTT       0.114000
     33 H17         -5.1780     1.8570     1.7130 ha         1 TTT       0.112000
     34 HN01        -3.4540    -3.1750     0.6010 hn         1 TTT       0.446000
     35 HN0A        -4.8750    -2.8200     1.5460 hn         1 TTT       0.446000
     36 HN2         -0.4260    -0.7230    -0.5580 hn         1 TTT       0.318500
     37 H6           1.2570     1.3760    -1.7340 h1         1 TTT       0.085700
     38 H01         -0.0090     0.8400    -3.7040 hc         1 TTT       0.044033
     39 H01A         1.6140     0.1550    -3.8850 hc         1 TTT       0.044033
     40 H01B         0.2320    -0.8990    -3.4870 hc         1 TTT       0.044033
     41 H18          5.1970    -1.1800     2.1630 ha         1 TTT       0.112000
     42 H4           1.9770    -2.1060    -2.6980 ha         1 TTT       0.113000
     43 H9           3.7650    -3.4690    -1.7260 ha         1 TTT       0.114000
@<TRIPOS>BOND
     1     1     2 1   
     2     1    15 2   
     3     1    18 1   
     4     2     5 ar  
     5     2     8 ar  
     6     3     6 ar  
     7     3     9 ar  
     8     3    21 ar  
     9     4     7 ar  
    10     4    23 ar  
    11     4    43 1   
    12     5    10 1   
    13     5    16 ar  
    14     6     7 ar  
    15     6    22 ar  
    16     7    24 1   
    17     8    11 ar  
    18     8    25 1   
    19     9    12 ar  
    20     9    26 1   
    21    10    27 1   
    22    10    28 1   
    23    10    29 1   
    24    11    13 ar  
    25    11    17 1   
    26    12    14 ar  
    27    12    30 1   
    28    13    16 ar  
    29    13    31 1   
    30    14    22 ar  
    31    14    32 1   
    32    16    33 1   
    33    17    34 1   
    34    17    35 1   
    35    18    19 1   
    36    18    36 1   
    37    19    20 1   
    38    19    21 1   
    39    19    37 1   
    40    20    38 1   
    41    20    39 1   
    42    20    40 1   
    43    21    23 ar  
    44    22    41 1   
    45    23    42 1   
@<TRIPOS>SUBSTRUCTURE
     1 TTT         1 TEMP              0 ****  ****    0 ROOT
