@<TRIPOS>MOLECULE
TTT
   43    45     1     0     0
SMALL
abcg2


@<TRIPOS>ATOM
      1 C1          -1.2510     0.8950    -0.9790 c          1 TTT       0.611700
      2 C3          -2.4330     0.5300    -0.1360 ca         1 TTT      -0.106600
      3 C8           2.5710     0.0540    -0.0290 ca         1 TTT      -0.020000
      4 C9           3.5850    -2.4240    -0.8680 ca         1 TTT      -0.114000
      5 C10         -2.8440     1.3690     0.9050 ca         1 TTT      -0.066300
      6 C11          3.6250    -0.5790     0.6830 ca         1 TTT      -0.041000
      7 C12          4.1180    -1.8280     0.2370 ca         1 TTT      -0.091000
      8 C13         -3.1210    -0.6410    -0.4350 ca         1 TTT      -0.160000
      9 C14          2.1100     1.3090     0.4440 ca         1 TTT      -0.099000
     10 C16         -2.1170     2.6300     1.2810 c3         1 TTT      -0.042800
     11 C19         -4.2640    -1.0140     0.2770 ca         1 TTT       0.280000
     12 C20          2.6580     1.8910     1.5550 ca         1 TTT      -0.107000
     13 C21         -4.6740    -0.1830     1.3220 ca         1 TTT      -0.156000
     14 C22          3.6970     1.2550     2.2610 ca         1 TTT      -0.106000
     15 O7          -1.1430     1.9990    -1.4970 o          1 TTT      -0.604100
     16 C17         -3.9690     0.9710     1.6220 ca         1 TTT      -0.081000
     17 N01         -4.9900    -2.1320    -0.0770 nv         1 TTT      -1.069000
     18 N2          -0.3280    -0.0720    -1.1060 ns         1 TTT      -0.504900
     19 C6           0.8710     0.0530    -1.9230 c3         1 TTT       0.156000
     20 C01          0.6240    -0.4820    -3.3280 c3         1 TTT      -0.106100
     21 C5           2.0230    -0.5920    -1.1810 ca         1 TTT      -0.090300
     22 C18          4.1710     0.0470     1.8280 ca         1 TTT      -0.101000
     23 C4           2.5340    -1.8010    -1.5730 ca         1 TTT      -0.098000
     24 H12          4.9210    -2.3040     0.7880 ha         1 TTT       0.114000
     25 H13         -2.7820    -1.2680    -1.2530 ha         1 TTT       0.113000
     26 H14          1.3240     1.8360    -0.0800 ha         1 TTT       0.127000
     27 H16         -2.2700     3.4240     0.5490 hc         1 TTT       0.046700
     28 H16A        -2.4690     2.9970     2.2440 hc         1 TTT       0.046700
     29 H16B        -1.0400     2.4770     1.3660 hc         1 TTT       0.046700
     30 H20          2.2910     2.8520     1.8930 ha         1 TTT       0.114000
     31 H21         -5.5500    -0.4430     1.9050 ha         1 TTT       0.114000
     32 H22          4.1190     1.7250     3.1390 ha         1 TTT       0.114000
     33 H17         -4.3090     1.5830     2.4490 ha         1 TTT       0.112000
     34 HN01        -4.4880    -2.8260    -0.6080 hn         1 TTT       0.446000
     35 HN0A        -5.5300    -2.5520     0.6620 hn         1 TTT       0.446000
     36 HN2         -0.4760    -0.9490    -0.6320 hn         1 TTT       0.318500
     37 H6           1.0810     1.1200    -2.0190 h1         1 TTT       0.085700
     38 H01         -0.1670     0.1000    -3.8000 hc         1 TTT       0.044033
     39 H01A         1.5180    -0.3980    -3.9450 hc         1 TTT       0.044033
     40 H01B         0.3080    -1.5260    -3.3180 hc         1 TTT       0.044033
     41 H18          4.9730    -0.4500     2.3610 ha         1 TTT       0.112000
     42 H4           2.1340    -2.3060    -2.4420 ha         1 TTT       0.113000
     43 H9           3.9600    -3.3800    -1.2090 ha         1 TTT       0.114000
@<TRIPOS>BOND
     1     1     2 1   
     2     1    15 2   
     3     1    18 1   
     4     2     5 ar  
     5     2     8 ar  
     6     3     6 ar  
     7     3     9 ar  
     8     3    21 ar  
     9     4     7 ar  
    10     4    23 ar  
    11     4    43 1   
    12     5    10 1   
    13     5    16 ar  
    14     6     7 ar  
    15     6    22 ar  
    16     7    24 1   
    17     8    11 ar  
    18     8    25 1   
    19     9    12 ar  
    20     9    26 1   
    21    10    27 1   
    22    10    28 1   
    23    10    29 1   
    24    11    13 ar  
    25    11    17 1   
    26    12    14 ar  
    27    12    30 1   
    28    13    16 ar  
    29    13    31 1   
    30    14    22 ar  
    31    14    32 1   
    32    16    33 1   
    33    17    34 1   
    34    17    35 1   
    35    18    19 1   
    36    18    36 1   
    37    19    20 1   
    38    19    21 1   
    39    19    37 1   
    40    20    38 1   
    41    20    39 1   
    42    20    40 1   
    43    21    23 ar  
    44    22    41 1   
    45    23    42 1   
@<TRIPOS>SUBSTRUCTURE
     1 TTT         1 TEMP              0 ****  ****    0 ROOT
