@<TRIPOS>MOLECULE
TTU
   67    72     1     0     0
SMALL
No Charge or Current Charge


@<TRIPOS>ATOM
      1 N1          43.1630    -5.3910    15.0100 n          1 TTU      -0.375800
      2 C4          42.5830    -1.1840    14.5310 ca         1 TTU      -0.148000
      3 C5          42.7360    -2.5560    14.8080 ca         1 TTU      -0.028300
      4 C6          43.9430    -3.0250    15.3790 ca         1 TTU      -0.122300
      5 C7          41.6020    -3.5250    14.4700 c6         1 TTU      -0.011100
      6 C8          41.7730    -4.9140    15.1100 cx         1 TTU       0.050400
      7 C10         43.5940    -6.5840    14.3670 c          1 TTU       0.620700
      8 C13         41.7970    -9.4560    12.5950 ca         1 TTU      -0.117500
      9 C15         41.0650    -7.3740    11.5800 ca         1 TTU      -0.117500
     10 C17         41.0190    -5.1470    16.4070 cx         1 TTU      -0.119900
     11 C20         43.4860    -3.9680    18.1390 ca         1 TTU      -0.058500
     12 C21         43.5410    -4.2340    19.5160 ca         1 TTU      -0.177000
     13 C22         44.2950    -5.3050    20.0200 ca         1 TTU       0.145100
     14 C24         44.9480    -5.8590    17.7250 ca         1 TTU      -0.058500
     15 C26         44.8300    -6.6900    23.4310 c5         1 TTU       0.155800
     16 C28         46.6230    -6.0380    21.8790 c5         1 TTU      -0.106400
     17 C1          44.9760    -2.1100    15.6670 ca         1 TTU      -0.057000
     18 C11         42.6710    -7.3270    13.4270 ca         1 TTU      -0.132600
     19 C12         42.6310    -8.7380    13.4690 ca         1 TTU      -0.076000
     20 C14         41.0090    -8.7750    11.6540 ca         1 TTU      -0.096000
     21 C16         41.8980    -6.6540    12.4550 ca         1 TTU      -0.076000
     22 C18         40.5620    -5.8330    15.1540 cx         1 TTU      -0.119900
     23 C19         44.1900    -4.7830    17.2270 ca         1 TTU      -0.137300
     24 C2          44.8120    -0.7420    15.3890 ca         1 TTU      -0.199000
     25 C23         45.0030    -6.1250    19.1040 ca         1 TTU      -0.177000
     26 C25         45.1360    -6.5320    21.9040 c5         1 TTU       0.164300
     27 C27         46.8680    -5.5930    23.3400 c5         1 TTU       0.157800
     28 C3          43.6160    -0.2820    14.8210 ca         1 TTU       0.138100
     29 C30         47.5610    -6.6820    26.1850 c3         1 TTU      -0.089100
     30 C9          44.1470    -4.5160    15.7110 c6         1 TTU       0.215300
     31 N2          46.1740    -6.6770    24.0660 n3         1 TTU      -0.722600
     32 O1          44.7340    -7.0030    14.5310 o          1 TTU      -0.607100
     33 O2          43.4540     1.0430    14.5490 oh         1 TTU      -0.539100
     34 O3          44.2680    -5.4720    21.4030 os         1 TTU      -0.358100
     35 H1          41.6610    -0.8180    14.0870 ha         1 TTU       0.128000
     36 H2          41.5470    -3.6310    13.3800 hc         1 TTU       0.059700
     37 H3          40.6410    -3.0870    14.7740 hc         1 TTU       0.059700
     38 H4          41.7650   -10.5430    12.6460 ha         1 TTU       0.116000
     39 H5          40.4700    -6.8450    10.8390 ha         1 TTU       0.116000
     40 H6          41.4840    -5.7700    17.1670 hc         1 TTU       0.082200
     41 H7          40.4040    -4.3420    16.8010 hc         1 TTU       0.082200
     42 H8          42.8870    -3.1310    17.7850 ha         1 TTU       0.126000
     43 H9          42.9900    -3.5990    20.2050 ha         1 TTU       0.123000
     44 H10         45.5010    -6.4970    17.0390 ha         1 TTU       0.126000
     45 H11         44.2110    -5.8580    23.7970 h1         1 TTU       0.053200
     46 H12         44.2890    -7.6230    23.6400 h1         1 TTU       0.053200
     47 H13         47.2950    -6.8590    21.6090 hc         1 TTU       0.061700
     48 H14         46.8060    -5.2240    21.1700 hc         1 TTU       0.061700
     49 H15         45.9050    -2.4610    16.1130 ha         1 TTU       0.121000
     50 H16         43.2390    -9.2780    14.1930 ha         1 TTU       0.121500
     51 H17         40.3650    -9.3310    10.9760 ha         1 TTU       0.114000
     52 H18         41.9560    -5.5750    12.3590 ha         1 TTU       0.121500
     53 H19         39.6420    -5.4840    14.6910 hc         1 TTU       0.082200
     54 H20         40.6990    -6.9100    15.1200 hc         1 TTU       0.082200
     55 H21         45.6180    -0.0490    15.6190 ha         1 TTU       0.116000
     56 H22         45.6050    -6.9690    19.4220 ha         1 TTU       0.123000
     57 H23         44.9650    -7.4760    21.3710 h1         1 TTU       0.058700
     58 H24         47.9400    -5.5390    23.5730 h1         1 TTU       0.041700
     59 H25         46.4180    -4.6110    23.5460 h1         1 TTU       0.041700
     60 H26         45.7000    -5.6370    25.8560 h1         1 TTU       0.030200
     61 H27         45.5480    -7.3950    25.9520 h1         1 TTU       0.030200
     62 H28         47.4740    -6.6860    27.2770 hc         1 TTU       0.038367
     63 H29         48.0620    -7.6060    25.8760 hc         1 TTU       0.038367
     64 H30         48.1890    -5.8300    25.8990 hc         1 TTU       0.038367
     65 H31         45.1490    -4.7550    15.3240 h1         1 TTU       0.094700
     66 H33         44.2720     1.5150    14.8150 ho         1 TTU       0.463000
     67 C29         46.1640    -6.5820    25.5420 c3         1 TTU       0.170800
@<TRIPOS>BOND
     1     1     6 1   
     2     1     7 1   
     3     1    30 1   
     4     2     3 ar  
     5     2    28 ar  
     6     2    35 1   
     7     3     4 ar  
     8     3     5 1   
     9     4    17 ar  
    10     4    30 1   
    11     5     6 1   
    12     5    36 1   
    13     5    37 1   
    14     6    10 1   
    15     6    22 1   
    16     7    18 1   
    17     7    32 2   
    18     8    19 ar  
    19     8    20 ar  
    20     8    38 1   
    21     9    20 ar  
    22     9    21 ar  
    23     9    39 1   
    24    10    22 1   
    25    10    40 1   
    26    10    41 1   
    27    11    12 ar  
    28    11    23 ar  
    29    11    42 1   
    30    12    13 ar  
    31    12    43 1   
    32    13    25 ar  
    33    13    34 1   
    34    14    23 ar  
    35    14    25 ar  
    36    14    44 1   
    37    15    26 1   
    38    15    31 1   
    39    15    45 1   
    40    15    46 1   
    41    16    26 1   
    42    16    27 1   
    43    16    47 1   
    44    16    48 1   
    45    17    24 ar  
    46    17    49 1   
    47    18    19 ar  
    48    18    21 ar  
    49    19    50 1   
    50    20    51 1   
    51    21    52 1   
    52    22    53 1   
    53    22    54 1   
    54    23    30 1   
    55    24    28 ar  
    56    24    55 1   
    57    25    56 1   
    58    26    34 1   
    59    26    57 1   
    60    27    31 1   
    61    27    58 1   
    62    27    59 1   
    63    28    33 1   
    64    29    62 1   
    65    29    63 1   
    66    29    64 1   
    67    29    67 1   
    68    30    65 1   
    69    31    67 1   
    70    33    66 1   
    71    60    67 1   
    72    61    67 1   
@<TRIPOS>SUBSTRUCTURE
     1 TTU         1 TEMP              0 ****  ****    0 ROOT
