@<TRIPOS>MOLECULE
TTU
   67    72     1     0     0
SMALL
abcg2


@<TRIPOS>ATOM
      1 N1          43.2060    -5.3610    15.0980 n          1 TTU      -0.375800
      2 C4          42.3420    -1.3140    14.4500 ca         1 TTU      -0.148000
      3 C5          42.5880    -2.6430    14.7960 ca         1 TTU      -0.028300
      4 C6          43.8350    -3.0040    15.3100 ca         1 TTU      -0.122300
      5 C7          41.5100    -3.6760    14.5710 c6         1 TTU      -0.011100
      6 C8          41.8210    -4.9810    15.2670 cx         1 TTU       0.050400
      7 C10         43.6900    -6.4040    14.3780 c          1 TTU       0.620700
      8 C13         41.8890    -9.3040    12.7710 ca         1 TTU      -0.117500
      9 C15         41.2700    -7.2940    11.5970 ca         1 TTU      -0.117500
     10 C17         41.1880    -5.2270    16.6190 cx         1 TTU      -0.119900
     11 C20         43.7330    -3.7300    18.1480 ca         1 TTU      -0.058500
     12 C21         43.8100    -3.9730    19.5100 ca         1 TTU      -0.177000
     13 C22         44.4290    -5.1300    19.9870 ca         1 TTU       0.145100
     14 C24         44.8860    -5.7770    17.7120 ca         1 TTU      -0.058500
     15 C26         44.7830    -6.4520    23.3980 c5         1 TTU       0.155800
     16 C28         46.6520    -6.3220    21.8450 c5         1 TTU      -0.106400
     17 C1          44.8140    -2.0210    15.4610 ca         1 TTU      -0.057000
     18 C11         42.7620    -7.1720    13.4880 ca         1 TTU      -0.132600
     19 C12         42.6910    -8.5580    13.6250 ca         1 TTU      -0.076000
     20 C14         41.1780    -8.6740    11.7530 ca         1 TTU      -0.096000
     21 C16         42.0530    -6.5440    12.4660 ca         1 TTU      -0.076000
     22 C18         40.7410    -6.0060    15.4160 cx         1 TTU      -0.119900
     23 C19         44.2640    -4.6310    17.2250 ca         1 TTU      -0.137300
     24 C2          44.5740    -0.7010    15.1190 ca         1 TTU      -0.199000
     25 C23         44.9750    -6.0370    19.0760 ca         1 TTU      -0.177000
     26 C25         45.1130    -6.4260    21.9020 c5         1 TTU       0.164300
     27 C27         47.0590    -6.0540    23.2930 c5         1 TTU       0.157800
     28 C3          43.3240    -0.3460    14.6100 ca         1 TTU       0.138100
     29 C30         47.2720    -6.9980    26.2060 c3         1 TTU      -0.089100
     30 C9          44.1650    -4.4250    15.7200 c6         1 TTU       0.215300
     31 N2          46.0460    -6.7840    24.0560 n3         1 TTU      -0.722600
     32 O1          44.8820    -6.7310    14.4140 o          1 TTU      -0.607100
     33 O2          43.0190     0.9370    14.2520 oh         1 TTU      -0.539100
     34 O3          44.4510    -5.2820    21.3400 os         1 TTU      -0.358100
     35 H1          41.3770    -1.0270    14.0500 ha         1 TTU       0.128000
     36 H2          41.4020    -3.8460    13.4950 hc         1 TTU       0.059700
     37 H3          40.5490    -3.2930    14.9190 hc         1 TTU       0.059700
     38 H4          41.8240   -10.3780    12.8950 ha         1 TTU       0.116000
     39 H5          40.7300    -6.8000    10.7990 ha         1 TTU       0.116000
     40 H6          41.7750    -5.7570    17.3530 hc         1 TTU       0.082200
     41 H7          40.5540    -4.4450    17.0150 hc         1 TTU       0.082200
     42 H8          43.2460    -2.8290    17.8000 ha         1 TTU       0.126000
     43 H9          43.3920    -3.2720    20.2220 ha         1 TTU       0.123000
     44 H10         45.3060    -6.4890    17.0130 ha         1 TTU       0.126000
     45 H11         44.4300    -5.4480    23.6860 h1         1 TTU       0.053200
     46 H12         44.0070    -7.1730    23.6560 h1         1 TTU       0.053200
     47 H13         47.0760    -7.2660    21.5000 hc         1 TTU       0.061700
     48 H14         46.9740    -5.5380    21.1620 hc         1 TTU       0.061700
     49 H15         45.7830    -2.2970    15.8590 ha         1 TTU       0.121000
     50 H16         43.2540    -9.0460    14.4110 ha         1 TTU       0.121500
     51 H17         40.5590    -9.2560    11.0820 ha         1 TTU       0.114000
     52 H18         42.1240    -5.4730    12.3390 ha         1 TTU       0.121500
     53 H19         39.7920    -5.7710    14.9530 hc         1 TTU       0.082200
     54 H20         41.0110    -7.0500    15.3780 hc         1 TTU       0.082200
     55 H21         45.3450     0.0520    15.2390 ha         1 TTU       0.116000
     56 H22         45.4780    -6.9320    19.4110 ha         1 TTU       0.123000
     57 H23         44.7470    -7.3200    21.3960 h1         1 TTU       0.058700
     58 H24         48.0630    -6.4060    23.5240 h1         1 TTU       0.041700
     59 H25         47.0180    -4.9730    23.5150 h1         1 TTU       0.041700
     60 H26         45.9000    -5.4190    25.6600 h1         1 TTU       0.030200
     61 H27         45.1440    -6.9940    25.9040 h1         1 TTU       0.030200
     62 H28         47.1790    -6.8210    27.2790 hc         1 TTU       0.038367
     63 H29         47.4100    -8.0690    26.0450 hc         1 TTU       0.038367
     64 H30         48.1690    -6.4820    25.8600 hc         1 TTU       0.038367
     65 H31         45.1310    -4.6840    15.2940 h1         1 TTU       0.094700
     66 H33         43.7800     1.5120    14.4100 ho         1 TTU       0.463000
     67 C29         46.0260    -6.5030    25.4850 c3         1 TTU       0.170800
@<TRIPOS>BOND
     1     1     6 1   
     2     1     7 1   
     3     1    30 1   
     4     2     3 ar  
     5     2    28 ar  
     6     2    35 1   
     7     3     4 ar  
     8     3     5 1   
     9     4    17 ar  
    10     4    30 1   
    11     5     6 1   
    12     5    36 1   
    13     5    37 1   
    14     6    10 1   
    15     6    22 1   
    16     7    18 1   
    17     7    32 2   
    18     8    19 ar  
    19     8    20 ar  
    20     8    38 1   
    21     9    20 ar  
    22     9    21 ar  
    23     9    39 1   
    24    10    22 1   
    25    10    40 1   
    26    10    41 1   
    27    11    12 ar  
    28    11    23 ar  
    29    11    42 1   
    30    12    13 ar  
    31    12    43 1   
    32    13    25 ar  
    33    13    34 1   
    34    14    23 ar  
    35    14    25 ar  
    36    14    44 1   
    37    15    26 1   
    38    15    31 1   
    39    15    45 1   
    40    15    46 1   
    41    16    26 1   
    42    16    27 1   
    43    16    47 1   
    44    16    48 1   
    45    17    24 ar  
    46    17    49 1   
    47    18    19 ar  
    48    18    21 ar  
    49    19    50 1   
    50    20    51 1   
    51    21    52 1   
    52    22    53 1   
    53    22    54 1   
    54    23    30 1   
    55    24    28 ar  
    56    24    55 1   
    57    25    56 1   
    58    26    34 1   
    59    26    57 1   
    60    27    31 1   
    61    27    58 1   
    62    27    59 1   
    63    28    33 1   
    64    29    62 1   
    65    29    63 1   
    66    29    64 1   
    67    29    67 1   
    68    30    65 1   
    69    31    67 1   
    70    33    66 1   
    71    60    67 1   
    72    61    67 1   
@<TRIPOS>SUBSTRUCTURE
     1 TTU         1 TEMP              0 ****  ****    0 ROOT
