@<TRIPOS>MOLECULE
TTV
   24    24     1     0     0
SMALL
abcg2


@<TRIPOS>ATOM
      1 O2          26.5570   -14.1090    25.1450 oh         1 TTV      -0.695000
      2 C2          26.3010   -13.2370    24.0860 c5         1 TTV       0.395000
      3 C1          26.0720   -11.8630    24.6960 c3         1 TTV       0.192600
      4 O1          25.0450   -11.9590    25.6510 oh         1 TTV      -0.693000
      5 O5          25.1400   -13.6420    23.3840 os         1 TTV      -0.437000
      6 C5          25.4520   -14.1810    22.1100 c5         1 TTV       0.165300
      7 C4          26.9630   -14.4010    22.1260 c5         1 TTV       0.086300
      8 O4          27.4860   -14.3290    20.8280 oh         1 TTV      -0.705000
      9 C3          27.4320   -13.2680    23.0430 c5         1 TTV       0.078300
     10 O3          27.4740   -12.0600    22.3330 oh         1 TTV      -0.704000
     11 C6          24.6820   -15.4550    21.8580 c3         1 TTV       0.163600
     12 O6          23.3100   -15.1580    21.7750 oh         1 TTV      -0.698000
     13 H11         27.0140   -11.5170    25.1420 h1         1 TTV       0.039700
     14 H12         25.8160   -11.1610    23.8960 h1         1 TTV       0.039700
     15 HO1         24.8920   -11.0790    26.0040 ho         1 TTV       0.499000
     16 H5          25.2050   -13.4500    21.3270 h1         1 TTV       0.086700
     17 H4          27.1950   -15.3720    22.5860 h1         1 TTV       0.043700
     18 HO4         28.3410   -14.7690    20.8130 ho         1 TTV       0.514000
     19 H3          28.3960   -13.4810    23.5230 h1         1 TTV       0.060700
     20 HO3         27.7940   -12.2600    21.4440 ho         1 TTV       0.524000
     21 H61         25.0600   -15.8950    20.9260 h1         1 TTV       0.022200
     22 H62         24.8990   -16.1710    22.6630 h1         1 TTV       0.022200
     23 HO6         22.8410   -15.9680    21.5570 ho         1 TTV       0.503000
     24 HO2         26.8430   -14.9690    24.8160 ho         1 TTV       0.496000
@<TRIPOS>BOND
     1     1     2 1   
     2     1    24 1   
     3     2     3 1   
     4     2     5 1   
     5     2     9 1   
     6     3     4 1   
     7     3    13 1   
     8     3    14 1   
     9     4    15 1   
    10     5     6 1   
    11     6     7 1   
    12     6    11 1   
    13     6    16 1   
    14     7     8 1   
    15     7     9 1   
    16     7    17 1   
    17     8    18 1   
    18     9    10 1   
    19     9    19 1   
    20    10    20 1   
    21    11    12 1   
    22    11    21 1   
    23    11    22 1   
    24    12    23 1   
@<TRIPOS>SUBSTRUCTURE
     1 TTV         1 TEMP              0 ****  ****    0 ROOT
