@<TRIPOS>MOLECULE
TTV
   24    24     1     0     0
SMALL
No Charge or Current Charge


@<TRIPOS>ATOM
      1 O2          26.1920   -14.3700    24.7430 oh         1 TTV      -0.695000
      2 C2          26.2200   -13.2070    23.9270 c5         1 TTV       0.395000
      3 C1          26.0050   -11.9830    24.8810 c3         1 TTV       0.192600
      4 O1          24.9430   -12.2440    25.8340 oh         1 TTV      -0.693000
      5 O5          25.1640   -13.2900    22.9560 os         1 TTV      -0.437000
      6 C5          25.5970   -14.1600    21.8710 c5         1 TTV       0.165300
      7 C4          27.1700   -14.2430    21.9840 c5         1 TTV       0.086300
      8 O4          27.8540   -13.9790    20.7420 oh         1 TTV      -0.705000
      9 C3          27.5050   -13.1330    23.0260 c5         1 TTV       0.078300
     10 O3          27.6830   -11.8930    22.3230 oh         1 TTV      -0.704000
     11 C6          24.8940   -15.5490    21.9470 c3         1 TTV       0.163600
     12 O6          23.4990   -15.4560    21.6020 oh         1 TTV      -0.698000
     13 H11         26.9470   -11.7760    25.4060 h1         1 TTV       0.039700
     14 H12         25.7680   -11.1010    24.2720 h1         1 TTV       0.039700
     15 HO1         24.7640   -11.3950    26.3020 ho         1 TTV       0.499000
     16 H5          25.3080   -13.6870    20.9230 h1         1 TTV       0.086700
     17 H4          27.4710   -15.2230    22.3820 h1         1 TTV       0.043700
     18 HO4         27.8780   -14.8230    20.2270 ho         1 TTV       0.514000
     19 H3          28.4080   -13.3840    23.6000 h1         1 TTV       0.060700
     20 HO3         27.8660   -12.2130    21.4000 ho         1 TTV       0.524000
     21 H61         25.4000   -16.2300    21.2500 h1         1 TTV       0.022200
     22 H62         25.0130   -15.9660    22.9550 h1         1 TTV       0.022200
     23 HO6         23.1090   -16.3510    21.7340 ho         1 TTV       0.503000
     24 HO2         25.5510   -14.0990    25.4430 ho         1 TTV       0.496000
@<TRIPOS>BOND
     1     1     2 1   
     2     1    24 1   
     3     2     3 1   
     4     2     5 1   
     5     2     9 1   
     6     3     4 1   
     7     3    13 1   
     8     3    14 1   
     9     4    15 1   
    10     5     6 1   
    11     6     7 1   
    12     6    11 1   
    13     6    16 1   
    14     7     8 1   
    15     7     9 1   
    16     7    17 1   
    17     8    18 1   
    18     9    10 1   
    19     9    19 1   
    20    10    20 1   
    21    11    12 1   
    22    11    21 1   
    23    11    22 1   
    24    12    23 1   
@<TRIPOS>SUBSTRUCTURE
     1 TTV         1 TEMP              0 ****  ****    0 ROOT
