@<TRIPOS>MOLECULE
TTW
   43    44     1     0     0
SMALL
No Charge or Current Charge


@<TRIPOS>ATOM
      1 O4          -6.3980    -3.1300     1.3080 o          1 TTW      -0.604000
      2 C4          -5.5550    -2.3980     0.8150 c          1 TTW       0.592200
      3 N3          -5.2990    -1.1760     1.3450 ns         1 TTW      -0.464500
      4 C2          -4.4060    -0.2400     0.9270 c          1 TTW       0.629000
      5 O2          -4.3410     0.8300     1.5100 o          1 TTW      -0.557000
      6 C5          -4.7390    -2.7250    -0.3740 cc         1 TTW      -0.311400
      7 C5M         -4.9940    -4.0730    -1.0040 c3         1 TTW       0.007100
      8 C6          -3.8110    -1.8190    -0.8410 cd         1 TTW      -0.030400
      9 N1          -3.6310    -0.5920    -0.2030 n          1 TTW      -0.302000
     10 C1          -2.5740     0.3210    -0.7180 c5         1 TTW       0.351700
     11 O6          -1.8440     1.0020     0.3150 os         1 TTW      -0.374000
     12 C8          -3.2640     1.4180    -1.5900 c5         1 TTW      -0.154400
     13 C3          -2.8880     2.7220    -0.8320 c5         1 TTW       0.116300
     14 O3          -2.8030     3.8430    -1.7190 oh         1 TTW      -0.709000
     15 C7          -1.5210     2.3040    -0.2110 c5         1 TTW       0.170300
     16 C9          -1.0030     3.2530     0.9120 c3         1 TTW       0.234600
     17 O5           0.4370     3.2820     0.9790 os         1 TTW      -0.550400
     18 PA           1.3240     2.0070     1.4280 p5         1 TTW       1.450800
     19 O1A          2.6650     2.5070     1.8580 o          1 TTW      -0.877500
     20 O2A          0.6380     1.2570     2.5230 o          1 TTW      -0.877500
     21 O3A          1.3300     1.2550     0.0390 os         1 TTW      -0.703800
     22 PB           2.5050     0.2240    -0.1200 p5         1 TTW       1.452700
     23 O1B          2.6260    -0.7520     0.9930 o          1 TTW      -0.897500
     24 O2B          3.7680     0.8620    -0.5970 o          1 TTW      -0.897500
     25 N3B          1.7890    -0.5260    -1.3200 n7         1 TTW      -0.975600
     26 PG           2.3120    -1.8590    -1.9400 p5         1 TTW       1.290800
     27 O1G          1.5000    -2.8140    -1.1630 o          1 TTW      -0.920167
     28 O2G          1.9220    -1.8430    -3.3710 o          1 TTW      -0.920167
     29 O3G          3.7690    -2.0660    -1.7620 o          1 TTW      -0.920167
     30 H1          -5.8480    -0.9240     2.1500 hn         1 TTW       0.325500
     31 H2          -4.7940    -4.8840    -0.2930 hc         1 TTW       0.022367
     32 H3          -6.0350    -4.1610    -1.3390 hc         1 TTW       0.022367
     33 H4          -4.3500    -4.2310    -1.8780 hc         1 TTW       0.022367
     34 H5          -3.1710    -1.9830    -1.7040 h4         1 TTW       0.185000
     35 H6          -1.8840    -0.2780    -1.3250 h2         1 TTW       0.037700
     36 H7          -2.8520     1.4030    -2.6060 hc         1 TTW       0.035200
     37 H8          -4.3490     1.2920    -1.6810 hc         1 TTW       0.035200
     38 H9          -3.6130     2.9220    -0.0280 h1         1 TTW       0.072700
     39 H10         -3.6840     3.9390    -2.1470 ho         1 TTW       0.469000
     40 H11         -0.7620     2.2090    -0.9990 h1         1 TTW       0.058700
     41 H12         -1.3650     4.2670     0.7000 h1         1 TTW       0.015700
     42 H13         -1.4360     2.9540     1.8750 h1         1 TTW       0.015700
     43 H16          1.4210    -1.1860    -0.6470 hn         1 TTW       0.432000
@<TRIPOS>BOND
     1     1     2 2   
     2     2     3 1   
     3     2     6 1   
     4     3     4 1   
     5     3    30 1   
     6     4     5 2   
     7     4     9 1   
     8     6     7 1   
     9     6     8 2   
    10     7    31 1   
    11     7    32 1   
    12     7    33 1   
    13     8     9 1   
    14     8    34 1   
    15     9    10 1   
    16    10    11 1   
    17    10    12 1   
    18    10    35 1   
    19    11    15 1   
    20    12    13 1   
    21    12    36 1   
    22    12    37 1   
    23    13    14 1   
    24    13    15 1   
    25    13    38 1   
    26    14    39 1   
    27    15    16 1   
    28    15    40 1   
    29    16    17 1   
    30    16    41 1   
    31    16    42 1   
    32    17    18 1   
    33    18    19 1   
    34    18    20 1   
    35    18    21 1   
    36    21    22 1   
    37    22    23 1   
    38    22    24 1   
    39    22    25 1   
    40    25    26 1   
    41    25    43 1   
    42    26    27 1   
    43    26    28 1   
    44    26    29 1   
@<TRIPOS>SUBSTRUCTURE
     1 TTW         1 TEMP              0 ****  ****    0 ROOT
