@<TRIPOS>MOLECULE
TTW
   43    44     1     0     0
SMALL
abcg2


@<TRIPOS>ATOM
      1 O4          -5.3160    -3.6420     1.2650 o          1 TTW      -0.604000
      2 C4          -4.9790    -2.6640     0.6230 c          1 TTW       0.592200
      3 N3          -4.6300    -1.4880     1.2610 ns         1 TTW      -0.464500
      4 C2          -4.2280    -0.3050     0.6980 c          1 TTW       0.629000
      5 O2          -3.9380     0.6590     1.3740 o          1 TTW      -0.557000
      6 C5          -4.8950    -2.6050    -0.8230 cc         1 TTW      -0.311400
      7 C5M         -5.2340    -3.8230    -1.6170 c3         1 TTW       0.007100
      8 C6          -4.5060    -1.4460    -1.3810 cd         1 TTW      -0.030400
      9 N1          -4.1920    -0.3120    -0.6770 n          1 TTW      -0.302000
     10 C1          -3.7270     0.8690    -1.4050 c5         1 TTW       0.351700
     11 O6          -2.3730     1.0770    -1.1270 os         1 TTW      -0.374000
     12 C8          -4.4650     2.1790    -1.1170 c5         1 TTW      -0.154400
     13 C3          -3.4330     3.0650    -0.4160 c5         1 TTW       0.116300
     14 O3          -3.4520     4.4140    -0.8120 oh         1 TTW      -0.709000
     15 C7          -2.1060     2.4420    -0.8520 c5         1 TTW       0.170300
     16 C9          -1.0320     2.5500     0.2020 c3         1 TTW       0.234600
     17 O5           0.1760     2.0350    -0.3070 os         1 TTW      -0.550400
     18 PA           1.4310     1.8590     0.7580 p5         1 TTW       1.450800
     19 O1A          1.8350     3.2200     1.2440 o          1 TTW      -0.877500
     20 O2A          1.0750     0.7970     1.7590 o          1 TTW      -0.877500
     21 O3A          2.4730     1.3160    -0.3550 os         1 TTW      -0.703800
     22 PB           3.6520     0.1350    -0.0870 p5         1 TTW       1.452700
     23 O1B          4.3240     0.5190     1.2060 o          1 TTW      -0.897500
     24 O2B          4.4500     0.1270    -1.3590 o          1 TTW      -0.897500
     25 N3B          2.7030    -1.2390     0.0110 n7         1 TTW      -0.975600
     26 PG           3.3850    -2.8610    -0.2130 p5         1 TTW       1.290800
     27 O1G          2.4890    -3.7110     0.6930 o          1 TTW      -0.920167
     28 O2G          3.2310    -3.1730    -1.7000 o          1 TTW      -0.920167
     29 O3G          4.8410    -2.7760     0.2490 o          1 TTW      -0.920167
     30 H1          -4.6660    -1.4920     2.2730 hn         1 TTW       0.325500
     31 H2          -4.5950    -4.6640    -1.3440 hc         1 TTW       0.022367
     32 H3          -6.2660    -4.1340    -1.4470 hc         1 TTW       0.022367
     33 H4          -5.1110    -3.6400    -2.6830 hc         1 TTW       0.022367
     34 H5          -4.4230    -1.3490    -2.4560 h4         1 TTW       0.185000
     35 H6          -3.8580     0.5990    -2.4560 h2         1 TTW       0.037700
     36 H7          -4.7350     2.6390    -2.0690 hc         1 TTW       0.035200
     37 H8          -5.3820     2.0400    -0.5470 hc         1 TTW       0.035200
     38 H9          -3.5450     2.9800     0.6680 h1         1 TTW       0.072700
     39 H10         -4.1790     4.8510    -0.3580 ho         1 TTW       0.469000
     40 H11         -1.7740     2.9460    -1.7720 h1         1 TTW       0.058700
     41 H12         -0.9300     3.6070     0.4770 h1         1 TTW       0.015700
     42 H13         -1.3590     2.0050     1.0950 h1         1 TTW       0.015700
     43 H16          2.0560    -1.1930     0.7880 hn         1 TTW       0.432000
@<TRIPOS>BOND
     1     1     2 2   
     2     2     3 1   
     3     2     6 1   
     4     3     4 1   
     5     3    30 1   
     6     4     5 2   
     7     4     9 1   
     8     6     7 1   
     9     6     8 2   
    10     7    31 1   
    11     7    32 1   
    12     7    33 1   
    13     8     9 1   
    14     8    34 1   
    15     9    10 1   
    16    10    11 1   
    17    10    12 1   
    18    10    35 1   
    19    11    15 1   
    20    12    13 1   
    21    12    36 1   
    22    12    37 1   
    23    13    14 1   
    24    13    15 1   
    25    13    38 1   
    26    14    39 1   
    27    15    16 1   
    28    15    40 1   
    29    16    17 1   
    30    16    41 1   
    31    16    42 1   
    32    17    18 1   
    33    18    19 1   
    34    18    20 1   
    35    18    21 1   
    36    21    22 1   
    37    22    23 1   
    38    22    24 1   
    39    22    25 1   
    40    25    26 1   
    41    25    43 1   
    42    26    27 1   
    43    26    28 1   
    44    26    29 1   
@<TRIPOS>SUBSTRUCTURE
     1 TTW         1 TEMP              0 ****  ****    0 ROOT
