@<TRIPOS>MOLECULE
TTX
   60    61     1     0     0
SMALL
No Charge or Current Charge


@<TRIPOS>ATOM
      1 C7          50.9270    35.8710    63.0690 c3         1 TTX       0.087300
      2 N1          50.3530    36.0580    61.7130 n          1 TTX      -0.357000
      3 C15         51.2480    35.8770    60.5830 ce         1 TTX      -0.081600
      4 C16         51.3730    36.9480    59.7360 cf         1 TTX      -0.063200
      5 C17         50.8850    38.3480    59.7920 ca         1 TTX      -0.088800
      6 C22         50.7330    39.0530    58.5790 ca         1 TTX      -0.081000
      7 C21         50.2710    40.3800    58.5710 ca         1 TTX      -0.117000
      8 C20         49.9640    41.0250    59.7790 ca         1 TTX      -0.091000
      9 C19         50.1320    40.3430    60.9940 ca         1 TTX      -0.117000
     10 C18         50.5960    39.0170    61.0030 ca         1 TTX      -0.081000
     11 C6          48.9380    36.1610    61.5730 c          1 TTX       0.585100
     12 O1          48.2460    36.3610    62.5650 o          1 TTX      -0.577100
     13 C5          48.2940    35.8950    60.1700 c3         1 TTX       0.041700
     14 C4          46.7730    36.2040    60.0790 c3         1 TTX      -0.073400
     15 C2          46.3710    37.7000    60.2340 c3         1 TTX      -0.057700
     16 C1          46.9350    38.5910    59.1030 c3         1 TTX      -0.090100
     17 C3          44.8350    37.8490    60.3270 c3         1 TTX      -0.090100
     18 N2          48.5350    34.4790    59.8190 ns         1 TTX      -0.503900
     19 C8          49.0840    34.0240    58.6410 c          1 TTX       0.591100
     20 O2          49.2960    34.7700    57.6950 o          1 TTX      -0.595100
     21 C9          49.4410    32.5080    58.6290 c3         1 TTX       0.027700
     22 C10         48.8870    31.8030    57.3640 c3         1 TTX      -0.098100
     23 N3          49.0940    31.7740    59.9020 n          1 TTX      -0.419800
     24 C11         47.7070    31.2550    60.0290 c3         1 TTX       0.075300
     25 C12         50.1040    31.2520    60.7590 c          1 TTX       0.572100
     26 O3          49.8710    30.2790    61.4640 o          1 TTX      -0.578100
     27 C13         51.4450    32.0170    60.9160 c3         1 TTX       0.020000
     28 N4          51.2360    33.4730    61.1250 ns         1 TTX      -0.503900
     29 C14         51.7580    34.4720    60.3320 c          1 TTX       0.605300
     30 O4          52.5390    34.2170    59.4260 o          1 TTX      -0.599100
     31 H71         50.7450    36.7680    63.6730 h1         1 TTX       0.047033
     32 H72         50.4580    35.0100    63.5630 h1         1 TTX       0.047033
     33 H73         52.0100    35.7040    63.0050 h1         1 TTX       0.047033
     34 H161        51.9520    36.7480    58.8320 ha         1 TTX       0.216000
     35 H221        50.9590    38.5660    57.6330 ha         1 TTX       0.122000
     36 H211        50.1490    40.9070    57.6280 ha         1 TTX       0.118500
     37 H201        49.6050    42.0520    59.7740 ha         1 TTX       0.116000
     38 H191        49.9100    40.8460    61.9330 ha         1 TTX       0.118500
     39 H181        50.7490    38.5300    61.9600 ha         1 TTX       0.122000
     40 H51         48.8210    36.5290    59.4490 h1         1 TTX       0.103700
     41 H41         46.2510    35.6090    60.8390 hc         1 TTX       0.053200
     42 H42         46.4040    35.8480    59.1090 hc         1 TTX       0.053200
     43 H21         46.7830    38.0740    61.1790 hc         1 TTX       0.059700
     44 H11         46.5870    38.2460    58.1220 hc         1 TTX       0.034033
     45 H12         46.6140    39.6310    59.2340 hc         1 TTX       0.034033
     46 H13         48.0280    38.5820    59.1040 hc         1 TTX       0.034033
     47 H31         44.4390    37.2670    61.1680 hc         1 TTX       0.034033
     48 H32         44.5560    38.8980    60.4830 hc         1 TTX       0.034033
     49 H33         44.3510    37.4980    59.4080 hc         1 TTX       0.034033
     50 HN21        48.3640    33.7680    60.5220 hn         1 TTX       0.326500
     51 H91         50.5310    32.4910    58.5170 h1         1 TTX       0.093700
     52 H101        49.3050    32.2570    56.4570 hc         1 TTX       0.053700
     53 H102        49.1590    30.7410    57.3640 hc         1 TTX       0.053700
     54 H103        47.7950    31.8840    57.3060 hc         1 TTX       0.053700
     55 H111        47.6390    30.2610    59.5700 h1         1 TTX       0.047700
     56 H112        47.4290    31.1800    61.0880 h1         1 TTX       0.047700
     57 H113        46.9990    31.9310    59.5340 h1         1 TTX       0.047700
     58 H131        52.0480    31.8340    60.0180 h1         1 TTX       0.087700
     59 H132        51.9800    31.6020    61.7790 h1         1 TTX       0.087700
     60 HN41        50.6000    33.7730    61.8540 hn         1 TTX       0.328500
@<TRIPOS>BOND
     1     1     2 1   
     2     1    31 1   
     3     1    32 1   
     4     1    33 1   
     5     2     3 1   
     6     2    11 1   
     7     3     4 2   
     8     3    29 1   
     9     4     5 1   
    10     4    34 1   
    11     5     6 ar  
    12     5    10 ar  
    13     6     7 ar  
    14     6    35 1   
    15     7     8 ar  
    16     7    36 1   
    17     8     9 ar  
    18     8    37 1   
    19     9    10 ar  
    20     9    38 1   
    21    10    39 1   
    22    11    12 2   
    23    11    13 1   
    24    13    14 1   
    25    13    18 1   
    26    13    40 1   
    27    14    15 1   
    28    14    41 1   
    29    14    42 1   
    30    15    16 1   
    31    15    17 1   
    32    15    43 1   
    33    16    44 1   
    34    16    45 1   
    35    16    46 1   
    36    17    47 1   
    37    17    48 1   
    38    17    49 1   
    39    18    19 1   
    40    18    50 1   
    41    19    20 2   
    42    19    21 1   
    43    21    22 1   
    44    21    23 1   
    45    21    51 1   
    46    22    52 1   
    47    22    53 1   
    48    22    54 1   
    49    23    24 1   
    50    23    25 1   
    51    24    55 1   
    52    24    56 1   
    53    24    57 1   
    54    25    26 2   
    55    25    27 1   
    56    27    28 1   
    57    27    58 1   
    58    27    59 1   
    59    28    29 1   
    60    28    60 1   
    61    29    30 2   
@<TRIPOS>SUBSTRUCTURE
     1 TTX         1 TEMP              0 ****  ****    0 ROOT
