@<TRIPOS>MOLECULE
TTX
   60    61     1     0     0
SMALL
bcc


@<TRIPOS>ATOM
      1 C7          50.8640    36.0770    63.1020 c3         1 TTX       0.087300
      2 N1          50.2480    35.9640    61.7830 n          1 TTX      -0.424000
      3 C15         51.1020    35.8090    60.6650 ce         1 TTX      -0.081600
      4 C16         51.3850    36.7890    59.7970 cf         1 TTX      -0.013200
      5 C17         50.9060    38.1670    59.7590 ca         1 TTX      -0.088800
      6 C22         50.8740    38.7910    58.5070 ca         1 TTX      -0.099000
      7 C21         50.3990    40.0850    58.3650 ca         1 TTX      -0.135000
      8 C20         49.9610    40.7880    59.4790 ca         1 TTX      -0.109000
      9 C19         50.0100    40.1910    60.7320 ca         1 TTX      -0.135000
     10 C18         50.4770    38.8940    60.8740 ca         1 TTX      -0.099000
     11 C6          48.8940    36.1190    61.6890 c          1 TTX       0.652100
     12 O1          48.2320    36.3740    62.6760 o          1 TTX      -0.577100
     13 C5          48.2480    35.8860    60.3130 c3         1 TTX       0.041700
     14 C4          46.7580    36.2100    60.3120 c3         1 TTX      -0.073400
     15 C2          46.4180    37.7000    60.4070 c3         1 TTX      -0.057700
     16 C1          46.8970    38.4790    59.1850 c3         1 TTX      -0.090100
     17 C3          44.9110    37.8670    60.5840 c3         1 TTX      -0.090100
     18 N2          48.5110    34.5120    59.9400 ns         1 TTX      -0.570900
     19 C8          49.0830    34.1500    58.7790 c          1 TTX       0.658100
     20 O2          49.3160    34.9300    57.8720 o          1 TTX      -0.595100
     21 C9          49.5130    32.6840    58.6560 c3         1 TTX       0.027700
     22 C10         49.0860    32.1070    57.3070 c3         1 TTX      -0.098100
     23 N3          49.1070    31.8410    59.7720 n          1 TTX      -0.486800
     24 C11         47.7710    31.2620    59.7180 c3         1 TTX       0.075300
     25 C12         49.9840    31.3390    60.6820 c          1 TTX       0.639100
     26 O3          49.7070    30.3800    61.3820 o          1 TTX      -0.578100
     27 C13         51.3270    32.0490    60.8750 c3         1 TTX       0.020000
     28 N4          51.1500    33.4540    61.1460 ns         1 TTX      -0.570900
     29 C14         51.6570    34.4440    60.3880 c          1 TTX       0.672300
     30 O4          52.4710    34.2500    59.4960 o          1 TTX      -0.599100
     31 H71         50.8060    37.0950    63.4890 h1         1 TTX       0.047033
     32 H72         50.3840    35.4110    63.8170 h1         1 TTX       0.047033
     33 H73         51.9120    35.8030    63.0210 h1         1 TTX       0.047033
     34 H161        52.0040    36.4980    58.9560 ha         1 TTX       0.166000
     35 H221        51.2170    38.2490    57.6340 ha         1 TTX       0.140000
     36 H211        50.3740    40.5440    57.3860 ha         1 TTX       0.136500
     37 H201        49.5920    41.8000    59.3730 ha         1 TTX       0.134000
     38 H191        49.6910    40.7390    61.6080 ha         1 TTX       0.136500
     39 H181        50.5310    38.4710    61.8670 ha         1 TTX       0.140000
     40 H51         48.7450    36.5090    59.5700 h1         1 TTX       0.103700
     41 H41         46.2650    35.6620    61.1200 hc         1 TTX       0.053200
     42 H42         46.3460    35.8210    59.3760 hc         1 TTX       0.053200
     43 H21         46.9070    38.1180    61.2910 hc         1 TTX       0.059700
     44 H11         46.4530    38.0780    58.2700 hc         1 TTX       0.034033
     45 H12         46.6160    39.5300    59.2620 hc         1 TTX       0.034033
     46 H13         47.9810    38.4550    59.0670 hc         1 TTX       0.034033
     47 H31         44.5530    37.3370    61.4690 hc         1 TTX       0.034033
     48 H32         44.6390    38.9180    60.6920 hc         1 TTX       0.034033
     49 H33         44.3700    37.4730    59.7190 hc         1 TTX       0.034033
     50 HN21        48.3000    33.7900    60.6120 hn         1 TTX       0.326500
     51 H91         50.6020    32.7160    58.6280 h1         1 TTX       0.093700
     52 H101        49.5410    32.6830    56.5050 hc         1 TTX       0.053700
     53 H102        49.4280    31.0770    57.2180 hc         1 TTX       0.053700
     54 H103        48.0070    32.1260    57.1660 hc         1 TTX       0.053700
     55 H111        47.7380    30.3600    59.1050 h1         1 TTX       0.047700
     56 H112        47.4270    31.0180    60.7190 h1         1 TTX       0.047700
     57 H113        47.0810    31.9880    59.2910 h1         1 TTX       0.047700
     58 H131        51.9680    31.9300    60.0020 h1         1 TTX       0.087700
     59 H132        51.8240    31.5560    61.7100 h1         1 TTX       0.087700
     60 HN41        50.5240    33.6930    61.8970 hn         1 TTX       0.328500
@<TRIPOS>BOND
     1     1     2 1   
     2     1    31 1   
     3     1    32 1   
     4     1    33 1   
     5     2     3 1   
     6     2    11 1   
     7     3     4 2   
     8     3    29 1   
     9     4     5 1   
    10     4    34 1   
    11     5     6 ar  
    12     5    10 ar  
    13     6     7 ar  
    14     6    35 1   
    15     7     8 ar  
    16     7    36 1   
    17     8     9 ar  
    18     8    37 1   
    19     9    10 ar  
    20     9    38 1   
    21    10    39 1   
    22    11    12 2   
    23    11    13 1   
    24    13    14 1   
    25    13    18 1   
    26    13    40 1   
    27    14    15 1   
    28    14    41 1   
    29    14    42 1   
    30    15    16 1   
    31    15    17 1   
    32    15    43 1   
    33    16    44 1   
    34    16    45 1   
    35    16    46 1   
    36    17    47 1   
    37    17    48 1   
    38    17    49 1   
    39    18    19 1   
    40    18    50 1   
    41    19    20 2   
    42    19    21 1   
    43    21    22 1   
    44    21    23 1   
    45    21    51 1   
    46    22    52 1   
    47    22    53 1   
    48    22    54 1   
    49    23    24 1   
    50    23    25 1   
    51    24    55 1   
    52    24    56 1   
    53    24    57 1   
    54    25    26 2   
    55    25    27 1   
    56    27    28 1   
    57    27    58 1   
    58    27    59 1   
    59    28    29 1   
    60    28    60 1   
    61    29    30 2   
@<TRIPOS>SUBSTRUCTURE
     1 TTX         1 TEMP              0 ****  ****    0 ROOT
