@<TRIPOS>MOLECULE
TTY
   20    21     1     0     0
SMALL
No Charge or Current Charge


@<TRIPOS>ATOM
      1 OAA         -3.4080    -0.4510    -0.1500 o          1 TTY      -0.711000
      2 CAI         -2.3950     0.2290    -0.0650 c          1 TTY       0.733600
      3 OAC         -2.4430     1.4460     0.0130 o          1 TTY      -0.711000
      4 CAK         -1.0800    -0.4770    -0.0410 cc         1 TTY      -0.132600
      5 CAM          0.2630     0.0130     0.0380 cc         1 TTY      -0.208600
      6 CAJ          0.8270     1.3900     0.0850 c          1 TTY       0.605700
      7 OAB          0.1870     2.4250    -0.0360 o          1 TTY      -0.488100
      8 CAF          2.3590     1.4470     0.2660 c6         1 TTY      -0.188400
      9 CAE          3.1030     0.2830    -0.4390 c6         1 TTY      -0.062400
     10 CAG          2.5700    -1.0880     0.0440 c6         1 TTY      -0.099700
     11 CAL          1.0620    -1.0960     0.0340 cd         1 TTY       0.112300
     12 OAH          0.3450    -2.2610    -0.0410 os         1 TTY      -0.265000
     13 CAD         -0.9660    -1.8450    -0.0860 cd         1 TTY       0.096900
     14 H2           2.7400     2.4350    -0.0220 hc         1 TTY       0.053200
     15 H3           2.5410     1.3210     1.3420 hc         1 TTY       0.053200
     16 H4           2.9660     0.3690    -1.5260 hc         1 TTY       0.035700
     17 H5           4.1840     0.3530    -0.2520 hc         1 TTY       0.035700
     18 H6           2.9680    -1.8890    -0.5940 hc         1 TTY       0.044700
     19 H7           2.9340    -1.2890     1.0610 hc         1 TTY       0.044700
     20 H8          -1.7260    -2.6140    -0.1470 h4         1 TTY       0.053100
@<TRIPOS>BOND
     1     1     2 1   
     2     2     3 1   
     3     2     4 1   
     4     4     5 1   
     5     4    13 2   
     6     5     6 1   
     7     5    11 2   
     8     6     7 2   
     9     6     8 1   
    10     8     9 1   
    11     8    14 1   
    12     8    15 1   
    13     9    10 1   
    14     9    16 1   
    15     9    17 1   
    16    10    11 1   
    17    10    18 1   
    18    10    19 1   
    19    11    12 1   
    20    12    13 1   
    21    13    20 1   
@<TRIPOS>SUBSTRUCTURE
     1 TTY         1 TEMP              0 ****  ****    0 ROOT
