@<TRIPOS>MOLECULE
TTY
   20    21     1     0     0
SMALL
abcg2


@<TRIPOS>ATOM
      1 OAA         -3.3930    -0.4570    -0.4090 o          1 TTY      -0.711000
      2 CAI         -2.4320     0.2260    -0.0020 c          1 TTY       0.733600
      3 OAC         -2.4680     1.3710     0.4760 o          1 TTY      -0.711000
      4 CAK         -1.0860    -0.4590    -0.0650 cc         1 TTY      -0.132600
      5 CAM          0.2660     0.0490    -0.0020 cc         1 TTY      -0.208600
      6 CAJ          0.8540     1.3880    -0.0240 c          1 TTY       0.605700
      7 OAB          0.2300     2.4050    -0.2440 o          1 TTY      -0.488100
      8 CAF          2.3450     1.4150     0.2580 c6         1 TTY      -0.188400
      9 CAE          3.0950     0.2640    -0.4080 c6         1 TTY      -0.062400
     10 CAG          2.5630    -1.0930     0.0470 c6         1 TTY      -0.099700
     11 CAL          1.0840    -1.0460     0.0040 cd         1 TTY       0.112300
     12 OAH          0.3620    -2.1670    -0.0410 os         1 TTY      -0.265000
     13 CAD         -0.9470    -1.8030    -0.0860 cd         1 TTY       0.096900
     14 H2           2.7470     2.3760    -0.0640 hc         1 TTY       0.053200
     15 H3           2.4770     1.3590     1.3450 hc         1 TTY       0.053200
     16 H4           2.9930     0.3460    -1.4930 hc         1 TTY       0.035700
     17 H5           4.1600     0.3400    -0.1850 hc         1 TTY       0.035700
     18 H6           2.9490    -1.8980    -0.5820 hc         1 TTY       0.044700
     19 H7           2.8950    -1.3060     1.0690 hc         1 TTY       0.044700
     20 H8          -1.6630    -2.6080    -0.1120 h4         1 TTY       0.053100
@<TRIPOS>BOND
     1     1     2 1   
     2     2     3 1   
     3     2     4 1   
     4     4     5 1   
     5     4    13 2   
     6     5     6 1   
     7     5    11 2   
     8     6     7 2   
     9     6     8 1   
    10     8     9 1   
    11     8    14 1   
    12     8    15 1   
    13     9    10 1   
    14     9    16 1   
    15     9    17 1   
    16    10    11 1   
    17    10    18 1   
    18    10    19 1   
    19    11    12 1   
    20    12    13 1   
    21    13    20 1   
@<TRIPOS>SUBSTRUCTURE
     1 TTY         1 TEMP              0 ****  ****    0 ROOT
