@<TRIPOS>MOLECULE
TTZ
   47    49     1     0     0
SMALL
No Charge or Current Charge


@<TRIPOS>ATOM
      1 O7          17.9370    50.6110    14.0320 oh         1 TTZ      -0.719000
      2 C7          19.3260    50.9900    13.9590 c3         1 TTZ       0.182600
      3 C5A         20.3100    49.7560    13.8310 c5         1 TTZ       0.156000
      4 O5A         21.5930    50.2470    14.2610 oh         1 TTZ      -0.698000
      5 C4A         19.8980    48.5050    14.7100 c5         1 TTZ       0.139300
      6 O4A         19.1820    48.8320    15.9120 oh         1 TTZ      -0.717000
      7 C3A         19.0640    47.6390    13.7210 c5         1 TTZ       0.138300
      8 O3A         18.7730    46.3370    14.2470 oh         1 TTZ      -0.725000
      9 C2A         20.0790    47.6030    12.5510 c5         1 TTZ       0.016300
     10 S1          19.2090    47.1140    11.0070 ss         1 TTZ      -0.398200
     11 C6A         20.4480    49.1100    12.3710 c5         1 TTZ       0.127500
     12 N1          19.5010    49.7390    11.3840 n2         1 TTZ      -0.633900
     13 C1A         18.9220    48.8250    10.7020 c2         1 TTZ       0.720100
     14 N2          18.0130    49.1380     9.7410 nu         1 TTZ      -0.907400
     15 C1          17.3430    50.4370     9.6650 c6         1 TTZ       0.459500
     16 C2          15.9020    50.3040     9.0440 c6         1 TTZ       0.135300
     17 O2          15.0890    49.3050     9.7080 oh         1 TTZ      -0.719000
     18 O5          18.1440    51.3470     8.8790 os         1 TTZ      -0.432000
     19 C5          18.2990    51.0140     7.4710 c6         1 TTZ       0.136300
     20 C6          19.2700    52.0610     6.8280 c3         1 TTZ       0.171600
     21 O6          20.5470    52.1410     7.4890 oh         1 TTZ      -0.706000
     22 C4          16.8960    50.9930     6.7810 c6         1 TTZ       0.110300
     23 O4          16.9750    50.6370     5.3820 oh         1 TTZ      -0.727000
     24 C3          15.9900    49.9710     7.5250 c6         1 TTZ       0.130300
     25 O3          14.6780    49.9460     6.9350 oh         1 TTZ      -0.673000
     26 H7          17.8950    50.0070    14.8150 ho         1 TTZ       0.506000
     27 H7C1        19.5900    51.5460    14.8700 h1         1 TTZ       0.070200
     28 H7C2        19.4980    51.6780    13.1210 h1         1 TTZ       0.070200
     29 H5A         21.5690    50.2800    15.2460 ho         1 TTZ       0.501000
     30 H4A         20.8050    47.9440    14.9840 h1         1 TTZ       0.048700
     31 H6          21.4760    49.2110    11.9940 h1         1 TTZ       0.079700
     32 HA          18.9260    47.9660    16.3140 ho         1 TTZ       0.520000
     33 H3A         18.1350    48.1470    13.4230 h1         1 TTZ       0.073700
     34 HB          18.4080    45.8040    13.5010 ho         1 TTZ       0.517000
     35 H2A         20.9510    46.9670    12.7630 h1         1 TTZ       0.099700
     36 H1          17.4100    48.3520     9.5290 hn         1 TTZ       0.510000
     37 H8          17.2260    50.8600    10.6780 h2         1 TTZ       0.115700
     38 H2          15.4230    51.2900     9.1410 h1         1 TTZ       0.066700
     39 HO2         14.3340    49.1460     9.0900 ho         1 TTZ       0.528000
     40 H3          16.4550    48.9790     7.4170 h1         1 TTZ       0.057700
     41 H5          18.7670    50.0230     7.3820 h1         1 TTZ       0.079700
     42 H61         18.7760    53.0420     6.8470 h1         1 TTZ       0.027200
     43 H62         19.4180    51.7920     5.7730 h1         1 TTZ       0.027200
     44 H4          16.4460    51.9920     6.8890 h1         1 TTZ       0.055700
     45 HO6         21.0480    52.8730     7.0590 ho         1 TTZ       0.502000
     46 HO4         17.1790    51.4580     4.8740 ho         1 TTZ       0.511000
     47 HO3         14.8410    49.9970     5.9640 ho         1 TTZ       0.464000
@<TRIPOS>BOND
     1     1     2 1   
     2     1    26 1   
     3     2     3 1   
     4     2    27 1   
     5     2    28 1   
     6     3     4 1   
     7     3     5 1   
     8     3    11 1   
     9     4    29 1   
    10     5     6 1   
    11     5     7 1   
    12     5    30 1   
    13     6    32 1   
    14     7     8 1   
    15     7     9 1   
    16     7    33 1   
    17     8    34 1   
    18     9    10 1   
    19     9    11 1   
    20     9    35 1   
    21    10    13 1   
    22    11    12 1   
    23    11    31 1   
    24    12    13 2   
    25    13    14 1   
    26    14    15 1   
    27    14    36 1   
    28    15    16 1   
    29    15    18 1   
    30    15    37 1   
    31    16    17 1   
    32    16    24 1   
    33    16    38 1   
    34    17    39 1   
    35    18    19 1   
    36    19    20 1   
    37    19    22 1   
    38    19    41 1   
    39    20    21 1   
    40    20    42 1   
    41    20    43 1   
    42    21    45 1   
    43    22    23 1   
    44    22    24 1   
    45    22    44 1   
    46    23    46 1   
    47    24    25 1   
    48    24    40 1   
    49    25    47 1   
@<TRIPOS>SUBSTRUCTURE
     1 TTZ         1 TEMP              0 ****  ****    0 ROOT
