@<TRIPOS>MOLECULE
TTZ
   47    49     1     0     0
SMALL
abcg2


@<TRIPOS>ATOM
      1 O7          17.5740    49.9620    14.0550 oh         1 TTZ      -0.719000
      2 C7          18.7910    50.6970    14.0600 c3         1 TTZ       0.182600
      3 C5A         20.0490    49.8460    13.8300 c5         1 TTZ       0.156000
      4 O5A         21.1070    50.7490    14.1540 oh         1 TTZ      -0.698000
      5 C4A         20.0750    48.5830    14.7120 c5         1 TTZ       0.139300
      6 O4A         19.4160    48.8070    15.9520 oh         1 TTZ      -0.717000
      7 C3A         19.4510    47.4740    13.8760 c5         1 TTZ       0.138300
      8 O3A         19.7960    46.2140    14.4340 oh         1 TTZ      -0.725000
      9 C2A         20.0200    47.7330    12.4800 c5         1 TTZ       0.016300
     10 S1          18.9410    47.2510    11.0990 ss         1 TTZ      -0.398200
     11 C6A         20.2000    49.2830    12.3730 c5         1 TTZ       0.127500
     12 N1          19.2820    49.8520    11.4140 n2         1 TTZ      -0.633900
     13 C1A         18.6180    48.9830    10.7640 c2         1 TTZ       0.720100
     14 N2          17.6990    49.2630     9.8010 nu         1 TTZ      -0.907400
     15 C1          17.2320    50.6150     9.6000 c6         1 TTZ       0.459500
     16 C2          15.8670    50.6190     8.9080 c6         1 TTZ       0.135300
     17 O2          14.9900    49.7600     9.6240 oh         1 TTZ      -0.719000
     18 O5          18.1400    51.4050     8.8490 os         1 TTZ      -0.432000
     19 C5          18.3630    50.9530     7.5080 c6         1 TTZ       0.136300
     20 C6          19.4440    51.8220     6.9100 c3         1 TTZ       0.171600
     21 O6          20.6890    51.4970     7.5270 oh         1 TTZ      -0.706000
     22 C4          17.0460    51.0220     6.7260 c6         1 TTZ       0.110300
     23 O4          17.1700    50.4620     5.4190 oh         1 TTZ      -0.727000
     24 C3          15.9860    50.2050     7.4500 c6         1 TTZ       0.130300
     25 O3          14.6960    50.3750     6.8690 oh         1 TTZ      -0.673000
     26 H7          17.5550    49.4530    14.8770 ho         1 TTZ       0.506000
     27 H7C1        18.9230    51.2180    15.0100 h1         1 TTZ       0.070200
     28 H7C2        18.7230    51.4340    13.2630 h1         1 TTZ       0.070200
     29 H5A         21.9530    50.3190    13.9760 ho         1 TTZ       0.501000
     30 H4A         21.1250    48.3160    14.8910 h1         1 TTZ       0.048700
     31 H6          21.2210    49.5090    12.0520 h1         1 TTZ       0.079700
     32 HA          19.4670    47.9940    16.4700 ho         1 TTZ       0.520000
     33 H3A         18.3660    47.5970    13.8640 h1         1 TTZ       0.073700
     34 HB          19.1970    45.5430    14.0820 ho         1 TTZ       0.517000
     35 H2A         20.9710    47.2150    12.3780 h1         1 TTZ       0.099700
     36 H1          17.0780    48.5170     9.5290 hn         1 TTZ       0.510000
     37 H8          17.1650    51.1200    10.5640 h2         1 TTZ       0.115700
     38 H2          15.5010    51.6510     8.9410 h1         1 TTZ       0.066700
     39 HO2         14.1680    49.6990     9.1190 ho         1 TTZ       0.528000
     40 H3          16.2760    49.1480     7.3910 h1         1 TTZ       0.057700
     41 H5          18.7100    49.9140     7.5210 h1         1 TTZ       0.079700
     42 H61         19.1890    52.8750     7.0720 h1         1 TTZ       0.027200
     43 H62         19.4910    51.6370     5.8330 h1         1 TTZ       0.027200
     44 H4          16.7140    52.0640     6.6650 h1         1 TTZ       0.055700
     45 HO6         21.3670    52.0790     7.1630 ho         1 TTZ       0.502000
     46 HO4         17.4200    51.1570     4.7990 ho         1 TTZ       0.511000
     47 HO3         14.7420    50.0630     5.9550 ho         1 TTZ       0.464000
@<TRIPOS>BOND
     1     1     2 1   
     2     1    26 1   
     3     2     3 1   
     4     2    27 1   
     5     2    28 1   
     6     3     4 1   
     7     3     5 1   
     8     3    11 1   
     9     4    29 1   
    10     5     6 1   
    11     5     7 1   
    12     5    30 1   
    13     6    32 1   
    14     7     8 1   
    15     7     9 1   
    16     7    33 1   
    17     8    34 1   
    18     9    10 1   
    19     9    11 1   
    20     9    35 1   
    21    10    13 1   
    22    11    12 1   
    23    11    31 1   
    24    12    13 2   
    25    13    14 1   
    26    14    15 1   
    27    14    36 1   
    28    15    16 1   
    29    15    18 1   
    30    15    37 1   
    31    16    17 1   
    32    16    24 1   
    33    16    38 1   
    34    17    39 1   
    35    18    19 1   
    36    19    20 1   
    37    19    22 1   
    38    19    41 1   
    39    20    21 1   
    40    20    42 1   
    41    20    43 1   
    42    21    45 1   
    43    22    23 1   
    44    22    24 1   
    45    22    44 1   
    46    23    46 1   
    47    24    25 1   
    48    24    40 1   
    49    25    47 1   
@<TRIPOS>SUBSTRUCTURE
     1 TTZ         1 TEMP              0 ****  ****    0 ROOT
