@<TRIPOS>MOLECULE
TU1
   59    63     1     0     0
SMALL
No Charge or Current Charge


@<TRIPOS>ATOM
      1 C4           5.0110    -4.2080    -1.0740 ca         1 TU1      -0.208500
      2 F2          -8.6590    -1.2200     1.2600 f          1 TU1      -0.171000
      3 N1           7.2780    -5.0200    -0.8030 nb         1 TU1      -0.683000
      4 O1           0.6740     0.6400     1.7740 o          1 TU1      -0.578100
      5 C3           6.0010    -5.1960    -1.2080 ca         1 TU1       0.356900
      6 F3          -1.8500     0.6880     2.7640 f          1 TU1      -0.151000
      7 C2           7.6010    -3.8330    -0.2450 ca         1 TU1       0.356900
      8 C7           2.4820    -0.3810    -0.2130 c3         1 TU1       0.041700
      9 N3           0.9980    -0.4310    -0.1960 ns         1 TU1      -0.486900
     10 C1           6.6730    -2.7930    -0.0730 ca         1 TU1      -0.208500
     11 N4           1.2390     4.0490    -0.8950 na         1 TU1      -0.220700
     12 C5           5.3440    -2.9690    -0.4910 ca         1 TU1       0.023000
     13 C6           3.0750    -1.7680    -0.5920 c          1 TU1       0.602100
     14 C9          -1.2960     0.1110     0.4850 ca         1 TU1      -0.185600
     15 C10         -1.7900    -0.1950    -0.8090 ca         1 TU1      -0.067000
     16 C11         -3.1710    -0.2100    -1.0670 ca         1 TU1      -0.114000
     17 C12         -4.1130     0.0820    -0.0550 cp         1 TU1       0.008000
     18 C13         -5.5850     0.0570    -0.3210 cp         1 TU1      -0.059000
     19 C14         -6.1570     0.6550    -1.4780 ca         1 TU1       0.169000
     20 C15         -7.5440     0.6170    -1.7040 ca         1 TU1      -0.127000
     21 C16         -8.3920    -0.0180    -0.7800 ca         1 TU1      -0.119000
     22 C17         -7.8470    -0.6090     0.3700 ca         1 TU1       0.157000
     23 C18         -6.4630    -0.5720     0.6000 ca         1 TU1      -0.116000
     24 C19         -3.6160     0.3810     1.2330 ca         1 TU1      -0.151000
     25 C20         -2.2380     0.4020     1.5010 ca         1 TU1       0.228000
     26 C21          2.9740     0.7230    -1.1860 c3         1 TU1      -0.009200
     27 C22          2.4470     2.0980    -0.8580 cc         1 TU1      -0.156400
     28 C23          1.4590     2.8060    -1.5370 cd         1 TU1      -0.157100
     29 C24          2.1090     4.0810     0.1790 ca         1 TU1      -0.046200
     30 C29          2.2720     5.1060     1.1220 ca         1 TU1      -0.125000
     31 C28          3.2290     4.9250     2.1430 ca         1 TU1      -0.088000
     32 C27          3.9970     3.7370     2.1990 ca         1 TU1      -0.133000
     33 C26          3.8110     2.7230     1.2360 ca         1 TU1      -0.064000
     34 C25          2.8500     2.9340     0.2360 ca         1 TU1      -0.093800
     35 F1          -5.3800     1.3030    -2.3760 f          1 TU1      -0.169000
     36 H2           4.8440    -1.0770     0.1140 hn         1 TU1       0.155000
     37 H7           2.8450    -0.1470     0.7960 h1         1 TU1       0.071700
     38 H4           4.0120    -4.4320    -1.4270 ha         1 TU1       0.136000
     39 H1           6.9970    -1.8620     0.3830 ha         1 TU1       0.136000
     40 H3           5.7630    -6.1600    -1.6560 h4         1 TU1       0.017600
     41 HA           8.6360    -3.7110     0.0750 h4         1 TU1       0.017600
     42 H211         4.0710     0.7530    -1.1810 hc         1 TU1       0.063700
     43 H212         2.6820     0.4540    -2.2090 hc         1 TU1       0.063700
     44 HB           0.5290    -0.8920    -0.9650 hn         1 TU1       0.330500
     45 H23          0.8960     2.5140    -2.4200 h4         1 TU1       0.214000
     46 H26          4.3970     1.8070     1.2700 ha         1 TU1       0.109000
     47 H27          4.7340     3.6050     2.9880 ha         1 TU1       0.114000
     48 H28          3.3780     5.7020     2.8890 ha         1 TU1       0.114000
     49 H29          1.6780     6.0150     1.0700 ha         1 TU1       0.116000
     50 HC           0.5770     4.7700    -1.1670 hn         1 TU1       0.353000
     51 H10         -1.1180    -0.4110    -1.6360 ha         1 TU1       0.124000
     52 H19         -4.3080     0.6120     2.0380 ha         1 TU1       0.140000
     53 H11         -3.5150    -0.4600    -2.0680 ha         1 TU1       0.127000
     54 H18         -6.0650    -1.0460     1.4940 ha         1 TU1       0.141000
     55 H16         -9.4660    -0.0510    -0.9500 ha         1 TU1       0.139000
     56 H15         -7.9590     1.0850    -2.5930 ha         1 TU1       0.139000
     57 N2           4.4280    -1.8980    -0.3050 ns         1 TU1      -0.139000
     58 C8           0.1920     0.1390     0.7680 c          1 TU1       0.623700
     59 O2           2.3910    -2.6570    -1.0930 o          1 TU1      -0.558100
@<TRIPOS>BOND
     1     1     5 ar  
     2     1    12 ar  
     3     1    38 1   
     4     2    22 1   
     5     3     5 ar  
     6     3     7 ar  
     7     4    58 2   
     8     5    40 1   
     9     6    25 1   
    10     7    10 ar  
    11     7    41 1   
    12     8     9 1   
    13     8    13 1   
    14     8    26 1   
    15     8    37 1   
    16     9    44 1   
    17     9    58 1   
    18    10    12 ar  
    19    10    39 1   
    20    11    28 1   
    21    11    29 1   
    22    11    50 1   
    23    12    57 1   
    24    13    57 1   
    25    13    59 2   
    26    14    15 ar  
    27    14    25 ar  
    28    14    58 1   
    29    15    16 ar  
    30    15    51 1   
    31    16    17 ar  
    32    16    53 1   
    33    17    18 1   
    34    17    24 ar  
    35    18    19 ar  
    36    18    23 ar  
    37    19    20 ar  
    38    19    35 1   
    39    20    21 ar  
    40    20    56 1   
    41    21    22 ar  
    42    21    55 1   
    43    22    23 ar  
    44    23    54 1   
    45    24    25 ar  
    46    24    52 1   
    47    26    27 1   
    48    26    42 1   
    49    26    43 1   
    50    27    28 2   
    51    27    34 1   
    52    28    45 1   
    53    29    30 ar  
    54    29    34 ar  
    55    30    31 ar  
    56    30    49 1   
    57    31    32 ar  
    58    31    48 1   
    59    32    33 ar  
    60    32    47 1   
    61    33    34 ar  
    62    33    46 1   
    63    36    57 1   
@<TRIPOS>SUBSTRUCTURE
     1 TU1         1 TEMP              0 ****  ****    0 ROOT
