@<TRIPOS>MOLECULE
TU1
   59    63     1     0     0
SMALL
abcg2


@<TRIPOS>ATOM
      1 C4           4.8070    -4.0810    -0.5260 ca         1 TU1      -0.208500
      2 F2          -8.2240    -1.4840    -1.4440 f          1 TU1      -0.171000
      3 N1           6.7540    -5.0860     0.4660 nb         1 TU1      -0.683000
      4 O1           0.8710    -1.3770     1.3890 o          1 TU1      -0.578100
      5 C3           5.7140    -5.1160    -0.3580 ca         1 TU1       0.356900
      6 F3          -1.5420    -2.8220     0.8420 f          1 TU1      -0.151000
      7 C2           6.9190    -3.9710     1.1720 ca         1 TU1       0.356900
      8 C7           2.5100    -0.1650    -0.4630 c3         1 TU1       0.041700
      9 N3           1.0760    -0.1750    -0.5000 ns         1 TU1      -0.486900
     10 C1           6.0820    -2.8760     1.0900 ca         1 TU1      -0.208500
     11 N4           1.3600     3.9230    -2.0660 na         1 TU1      -0.220700
     12 C5           4.9910    -2.9170     0.2200 ca         1 TU1       0.023000
     13 C6           3.0570    -1.5870    -0.5810 c          1 TU1       0.602100
     14 C9          -1.1190    -0.5600     0.3600 ca         1 TU1      -0.185600
     15 C10         -1.6530     0.6950     0.0740 ca         1 TU1      -0.067000
     16 C11         -3.0210     0.9010     0.0280 ca         1 TU1      -0.114000
     17 C12         -3.8970    -0.1590     0.2540 cp         1 TU1       0.008000
     18 C13         -5.3600     0.0210     0.1720 cp         1 TU1      -0.059000
     19 C14         -6.0190     1.0260     0.8700 ca         1 TU1       0.169000
     20 C15         -7.3860     1.2020     0.8040 ca         1 TU1      -0.127000
     21 C16         -8.1450     0.3510     0.0150 ca         1 TU1      -0.119000
     22 C17         -7.5000    -0.6570    -0.6760 ca         1 TU1       0.157000
     23 C18         -6.1340    -0.8370    -0.6090 ca         1 TU1      -0.116000
     24 C19         -3.3780    -1.4220     0.5300 ca         1 TU1      -0.151000
     25 C20         -2.0110    -1.5980     0.5860 ca         1 TU1       0.228000
     26 C21          3.0530     0.6810    -1.6290 c3         1 TU1      -0.009200
     27 C22          2.5390     2.0800    -1.5920 cc         1 TU1      -0.156400
     28 C23          1.6230     2.6370    -2.4400 cd         1 TU1      -0.157100
     29 C24          2.0980     4.2340    -0.9620 ca         1 TU1      -0.046200
     30 C29          2.1740     5.4160    -0.2260 ca         1 TU1      -0.125000
     31 C28          3.0300     5.4370     0.8580 ca         1 TU1      -0.088000
     32 C27          3.7970     4.3120     1.2060 ca         1 TU1      -0.133000
     33 C26          3.7190     3.1430     0.4740 ca         1 TU1      -0.064000
     34 C25          2.8590     3.0920    -0.6290 ca         1 TU1      -0.093800
     35 F1          -5.3050     1.8450     1.6560 f          1 TU1      -0.169000
     36 H2           4.4550    -1.0390     0.7710 hn         1 TU1       0.155000
     37 H7           2.8390     0.2780     0.4830 h1         1 TU1       0.071700
     38 H4           3.9920    -4.2000    -1.2200 ha         1 TU1       0.136000
     39 H1           6.2800    -2.0010     1.6960 ha         1 TU1       0.136000
     40 H3           5.5790    -6.0250    -0.9330 h4         1 TU1       0.017600
     41 HA           7.7690    -3.9420     1.8460 h4         1 TU1       0.017600
     42 H211         4.1450     0.6650    -1.5810 hc         1 TU1       0.063700
     43 H212         2.7740     0.2060    -2.5720 hc         1 TU1       0.063700
     44 HB           0.6090     0.2510    -1.2850 hn         1 TU1       0.330500
     45 H23          1.1370     2.2050    -3.3020 h4         1 TU1       0.214000
     46 H26          4.3200     2.2850     0.7510 ha         1 TU1       0.109000
     47 H27          4.4570     4.3650     2.0620 ha         1 TU1       0.114000
     48 H28          3.1140     6.3390     1.4500 ha         1 TU1       0.114000
     49 H29          1.5860     6.2850    -0.4930 ha         1 TU1       0.116000
     50 HC           0.7190     4.5390    -2.5380 hn         1 TU1       0.353000
     51 H10         -0.9900     1.5330    -0.0960 ha         1 TU1       0.124000
     52 H19         -4.0320    -2.2650     0.7100 ha         1 TU1       0.140000
     53 H11         -3.3970     1.8850    -0.2100 ha         1 TU1       0.127000
     54 H18         -5.6640    -1.6310    -1.1750 ha         1 TU1       0.141000
     55 H16         -9.2170     0.4740    -0.0560 ha         1 TU1       0.139000
     56 H15         -7.8590     1.9960     1.3670 ha         1 TU1       0.139000
     57 N2           4.1780    -1.7950     0.1610 ns         1 TU1      -0.139000
     58 C8           0.3560    -0.7600     0.4710 c          1 TU1       0.623700
     59 O2           2.5530    -2.4070    -1.3170 o          1 TU1      -0.558100
@<TRIPOS>BOND
     1     1     5 ar  
     2     1    12 ar  
     3     1    38 1   
     4     2    22 1   
     5     3     5 ar  
     6     3     7 ar  
     7     4    58 2   
     8     5    40 1   
     9     6    25 1   
    10     7    10 ar  
    11     7    41 1   
    12     8     9 1   
    13     8    13 1   
    14     8    26 1   
    15     8    37 1   
    16     9    44 1   
    17     9    58 1   
    18    10    12 ar  
    19    10    39 1   
    20    11    28 1   
    21    11    29 1   
    22    11    50 1   
    23    12    57 1   
    24    13    57 1   
    25    13    59 2   
    26    14    15 ar  
    27    14    25 ar  
    28    14    58 1   
    29    15    16 ar  
    30    15    51 1   
    31    16    17 ar  
    32    16    53 1   
    33    17    18 1   
    34    17    24 ar  
    35    18    19 ar  
    36    18    23 ar  
    37    19    20 ar  
    38    19    35 1   
    39    20    21 ar  
    40    20    56 1   
    41    21    22 ar  
    42    21    55 1   
    43    22    23 ar  
    44    23    54 1   
    45    24    25 ar  
    46    24    52 1   
    47    26    27 1   
    48    26    42 1   
    49    26    43 1   
    50    27    28 2   
    51    27    34 1   
    52    28    45 1   
    53    29    30 ar  
    54    29    34 ar  
    55    30    31 ar  
    56    30    49 1   
    57    31    32 ar  
    58    31    48 1   
    59    32    33 ar  
    60    32    47 1   
    61    33    34 ar  
    62    33    46 1   
    63    36    57 1   
@<TRIPOS>SUBSTRUCTURE
     1 TU1         1 TEMP              0 ****  ****    0 ROOT
