@<TRIPOS>MOLECULE
TU2
   49    51     1     0     0
SMALL
No Charge or Current Charge


@<TRIPOS>ATOM
      1 C02         -6.7840    -6.6250    40.6180 c          1 TU2       0.502200
      2 C03         -7.3710    -5.8740    39.4300 ca         1 TU2      -0.090600
      3 C04         -7.1230    -4.4930    39.2810 ca         1 TU2      -0.173000
      4 C05         -7.6530    -3.7570    38.1960 ca         1 TU2       0.140100
      5 C07         -6.5780    -1.6700    39.0190 c3         1 TU2       0.144400
      6 C08         -8.4640    -4.4250    37.2270 ca         1 TU2       0.054100
      7 C10         -8.8920    -2.4240    35.7620 c3         1 TU2       0.149900
      8 C11         -8.7250    -5.8080    37.3840 ca         1 TU2       0.140100
      9 C13         -9.8040    -7.8470    36.4700 c3         1 TU2       0.144400
     10 C14         -8.1910    -6.5170    38.4800 ca         1 TU2      -0.173000
     11 C15         -6.4760    -8.1150    40.4730 ca         1 TU2       0.250500
     12 C17         -5.7780    -9.8950    39.0840 cp         1 TU2       0.392500
     13 C18         -5.3790   -10.3230    37.6920 cp         1 TU2      -0.112500
     14 C19         -4.6550   -11.5240    37.4550 ca         1 TU2      -0.188000
     15 C20         -4.2910   -11.9190    36.1560 ca         1 TU2       0.133100
     16 C22         -4.6390   -11.1220    35.0460 ca         1 TU2      -0.090300
     17 C23         -4.2520   -11.5360    33.6280 c3         1 TU2      -0.036800
     18 C24         -5.3500    -9.9280    35.2580 ca         1 TU2      -0.087000
     19 C25         -5.7110    -9.5340    36.5570 ca         1 TU2      -0.104000
     20 C26         -5.8840   -10.8030    40.1680 ca         1 TU2      -0.113000
     21 C27         -6.2880   -10.3430    41.4340 ca         1 TU2      -0.126000
     22 C28         -6.5870    -8.9810    41.5900 ca         1 TU2       0.163000
     23 F29         -7.0050    -8.5380    42.7980 f          1 TU2      -0.150000
     24 N16         -6.0660    -8.5830    39.2530 nb         1 TU2      -0.636000
     25 O01         -6.5560    -6.0210    41.6650 o          1 TU2      -0.496100
     26 O06         -7.3840    -2.4020    38.0780 os         1 TU2      -0.323600
     27 O09         -9.0380    -3.8120    36.1110 os         1 TU2      -0.329100
     28 O12         -9.5170    -6.4370    36.4350 os         1 TU2      -0.323600
     29 O21         -3.5930   -13.0800    35.9830 oh         1 TU2      -0.532100
     30 H1          -6.5010    -4.0070    40.0260 ha         1 TU2       0.134000
     31 H2          -6.5080    -0.6170    38.7190 h1         1 TU2       0.043700
     32 H3          -7.0190    -1.7070    40.0230 h1         1 TU2       0.043700
     33 H4          -5.5600    -2.0780    39.0620 h1         1 TU2       0.043700
     34 H5          -9.4400    -2.2090    34.8360 h1         1 TU2       0.035700
     35 H6          -9.2990    -1.7760    36.5490 h1         1 TU2       0.035700
     36 H7          -7.8380    -2.1700    35.5930 h1         1 TU2       0.035700
     37 H8         -10.4310    -8.1270    35.6140 h1         1 TU2       0.043700
     38 H9          -8.8790    -8.4360    36.4200 h1         1 TU2       0.043700
     39 H10        -10.3440    -8.1130    37.3870 h1         1 TU2       0.043700
     40 H11         -8.4160    -7.5710    38.6090 ha         1 TU2       0.134000
     41 H12         -4.3580   -12.1500    38.2920 ha         1 TU2       0.111000
     42 H13         -3.1630   -11.6160    33.5260 hc         1 TU2       0.045700
     43 H14         -4.6860   -12.5090    33.3710 hc         1 TU2       0.045700
     44 H15         -4.6010   -10.8120    32.8820 hc         1 TU2       0.045700
     45 H16         -5.6260    -9.2980    34.4150 ha         1 TU2       0.117000
     46 H17         -6.2640    -8.6050    36.6790 ha         1 TU2       0.132000
     47 H18         -5.6770   -11.8580    40.0270 ha         1 TU2       0.130000
     48 H19         -6.3810   -11.0290    42.2740 ha         1 TU2       0.142000
     49 H20         -3.4460   -13.4880    36.8630 ho         1 TU2       0.463000
@<TRIPOS>BOND
     1     1     2 1   
     2     1    11 1   
     3     1    25 2   
     4     2     3 ar  
     5     2    10 ar  
     6     3     4 ar  
     7     3    30 1   
     8     4     6 ar  
     9     4    26 1   
    10     5    26 1   
    11     5    31 1   
    12     5    32 1   
    13     5    33 1   
    14     6     8 ar  
    15     6    27 1   
    16     7    27 1   
    17     7    34 1   
    18     7    35 1   
    19     7    36 1   
    20     8    10 ar  
    21     8    28 1   
    22     9    28 1   
    23     9    37 1   
    24     9    38 1   
    25     9    39 1   
    26    10    40 1   
    27    11    22 ar  
    28    11    24 ar  
    29    12    13 1   
    30    12    20 ar  
    31    12    24 ar  
    32    13    14 ar  
    33    13    19 ar  
    34    14    15 ar  
    35    14    41 1   
    36    15    16 ar  
    37    15    29 1   
    38    16    17 1   
    39    16    18 ar  
    40    17    42 1   
    41    17    43 1   
    42    17    44 1   
    43    18    19 ar  
    44    18    45 1   
    45    19    46 1   
    46    20    21 ar  
    47    20    47 1   
    48    21    22 ar  
    49    21    48 1   
    50    22    23 1   
    51    29    49 1   
@<TRIPOS>SUBSTRUCTURE
     1 TU2         1 TEMP              0 ****  ****    0 ROOT
