@<TRIPOS>MOLECULE
TU2
   49    51     1     0     0
SMALL
abcg2


@<TRIPOS>ATOM
      1 C02         -6.5460    -6.5840    40.4590 c          1 TU2       0.502200
      2 C03         -7.2770    -5.8080    39.4320 ca         1 TU2      -0.090600
      3 C04         -7.1480    -4.4200    39.4570 ca         1 TU2      -0.173000
      4 C05         -7.8470    -3.6500    38.5380 ca         1 TU2       0.140100
      5 C07         -6.9730    -1.6190    39.3890 c3         1 TU2       0.144400
      6 C08         -8.6840    -4.2700    37.6010 ca         1 TU2       0.054100
      7 C10         -8.6950    -3.2480    35.5040 c3         1 TU2       0.149900
      8 C11         -8.8090    -5.6620    37.5840 ca         1 TU2       0.140100
      9 C13         -9.7620    -7.5640    36.5430 c3         1 TU2       0.144400
     10 C14         -8.1070    -6.4330    38.5060 ca         1 TU2      -0.173000
     11 C15         -6.4330    -8.0740    40.3060 ca         1 TU2       0.250500
     12 C17         -5.8080    -9.8310    38.9550 cp         1 TU2       0.392500
     13 C18         -5.3560   -10.2540    37.6150 cp         1 TU2      -0.112500
     14 C19         -4.6100   -11.4190    37.4440 ca         1 TU2      -0.188000
     15 C20         -4.1970   -11.8190    36.1790 ca         1 TU2       0.133100
     16 C22         -4.5230   -11.0640    35.0460 ca         1 TU2      -0.090300
     17 C23         -4.0850   -11.5010    33.6820 c3         1 TU2      -0.036800
     18 C24         -5.2640    -9.9040    35.2380 ca         1 TU2      -0.087000
     19 C25         -5.6750    -9.4900    36.4960 ca         1 TU2      -0.104000
     20 C26         -6.0550   -10.7470    39.9810 ca         1 TU2      -0.113000
     21 C27         -6.5030   -10.2920    41.2050 ca         1 TU2      -0.126000
     22 C28         -6.6870    -8.9330    41.3640 ca         1 TU2       0.163000
     23 F29         -7.1410    -8.4600    42.5240 f          1 TU2      -0.150000
     24 N16         -6.0100    -8.5310    39.1380 nb         1 TU2      -0.636000
     25 O01         -6.0210    -6.0530    41.4140 o          1 TU2      -0.496100
     26 O06         -7.7930    -2.3110    38.4670 os         1 TU2      -0.323600
     27 O09         -9.3850    -3.5200    36.7200 os         1 TU2      -0.329100
     28 O12         -9.6300    -6.1600    36.6460 os         1 TU2      -0.323600
     29 O21         -3.4670   -12.9350    35.9790 oh         1 TU2      -0.532100
     30 H1          -6.4970    -3.9640    40.1890 ha         1 TU2       0.134000
     31 H2          -7.0830    -0.5620    39.1630 h1         1 TU2       0.043700
     32 H3          -7.2840    -1.7930    40.4220 h1         1 TU2       0.043700
     33 H4          -5.9210    -1.8950    39.2850 h1         1 TU2       0.043700
     34 H5          -9.3680    -2.6620    34.8810 h1         1 TU2       0.035700
     35 H6          -7.7850    -2.6700    35.6780 h1         1 TU2       0.035700
     36 H7          -8.4350    -4.1660    34.9740 h1         1 TU2       0.035700
     37 H8         -10.4400    -7.7480    35.7140 h1         1 TU2       0.043700
     38 H9          -8.8050    -8.0500    36.3310 h1         1 TU2       0.043700
     39 H10        -10.1880    -8.0030    37.4490 h1         1 TU2       0.043700
     40 H11         -8.2090    -7.5070    38.5060 ha         1 TU2       0.134000
     41 H12         -4.3240   -12.0180    38.3030 ha         1 TU2       0.111000
     42 H13         -2.9980   -11.5600    33.6060 hc         1 TU2       0.045700
     43 H14         -4.4750   -12.4890    33.4310 hc         1 TU2       0.045700
     44 H15         -4.4340   -10.8030    32.9230 hc         1 TU2       0.045700
     45 H16         -5.5300    -9.3080    34.3730 ha         1 TU2       0.117000
     46 H17         -6.2560    -8.5840    36.6030 ha         1 TU2       0.132000
     47 H18         -5.9270   -11.8090    39.8240 ha         1 TU2       0.130000
     48 H19         -6.7200   -10.9760    42.0150 ha         1 TU2       0.142000
     49 H20         -3.3030   -13.3890    36.8130 ho         1 TU2       0.463000
@<TRIPOS>BOND
     1     1     2 1   
     2     1    11 1   
     3     1    25 2   
     4     2     3 ar  
     5     2    10 ar  
     6     3     4 ar  
     7     3    30 1   
     8     4     6 ar  
     9     4    26 1   
    10     5    26 1   
    11     5    31 1   
    12     5    32 1   
    13     5    33 1   
    14     6     8 ar  
    15     6    27 1   
    16     7    27 1   
    17     7    34 1   
    18     7    35 1   
    19     7    36 1   
    20     8    10 ar  
    21     8    28 1   
    22     9    28 1   
    23     9    37 1   
    24     9    38 1   
    25     9    39 1   
    26    10    40 1   
    27    11    22 ar  
    28    11    24 ar  
    29    12    13 1   
    30    12    20 ar  
    31    12    24 ar  
    32    13    14 ar  
    33    13    19 ar  
    34    14    15 ar  
    35    14    41 1   
    36    15    16 ar  
    37    15    29 1   
    38    16    17 1   
    39    16    18 ar  
    40    17    42 1   
    41    17    43 1   
    42    17    44 1   
    43    18    19 ar  
    44    18    45 1   
    45    19    46 1   
    46    20    21 ar  
    47    20    47 1   
    48    21    22 ar  
    49    21    48 1   
    50    22    23 1   
    51    29    49 1   
@<TRIPOS>SUBSTRUCTURE
     1 TU2         1 TEMP              0 ****  ****    0 ROOT
