@<TRIPOS>MOLECULE
TU3
   48    50     1     0     0
SMALL
abcg2


@<TRIPOS>ATOM
      1 C02         -6.6740    -6.4200    40.5030 c          1 TU3       0.499200
      2 C03         -7.3740    -5.6840    39.4220 ca         1 TU3      -0.092600
      3 C04         -8.0680    -6.3380    38.4070 ca         1 TU3      -0.171500
      4 C05         -8.7500    -5.5930    37.4500 ca         1 TU3       0.139600
      5 C07         -9.4350    -7.5310    36.2710 c3         1 TU3       0.143900
      6 C08         -8.7450    -4.1970    37.5170 ca         1 TU3       0.054100
      7 C10         -8.6860    -3.1320    35.4400 c3         1 TU3       0.149900
      8 C11         -8.0450    -3.5460    38.5400 ca         1 TU3       0.139600
      9 C13         -7.4310    -1.4860    39.5320 c3         1 TU3       0.143900
     10 C14         -7.3690    -4.2910    39.4970 ca         1 TU3      -0.171500
     11 C15         -6.2620    -7.8500    40.3170 ca         1 TU3       0.233500
     12 C17         -5.5860    -9.5500    38.9540 cp         1 TU3       0.358500
     13 C18         -5.3140   -10.0240    37.5860 cp         1 TU3      -0.117500
     14 C19         -5.2910   -11.3870    37.2890 ca         1 TU3      -0.188000
     15 C20         -5.0370   -11.8270    35.9970 ca         1 TU3       0.132100
     16 C22         -4.7960   -10.9140    34.9620 ca         1 TU3      -0.087300
     17 C23         -4.5150   -11.3930    33.5710 c3         1 TU3      -0.037800
     18 C24         -4.8320    -9.5620    35.2770 ca         1 TU3      -0.088000
     19 C25         -5.0900    -9.1080    36.5620 ca         1 TU3      -0.102000
     20 C26         -5.4270   -10.3570    40.0870 ca         1 TU3       0.314900
     21 C28         -6.1280    -8.6750    41.4310 ca         1 TU3       0.332900
     22 N16         -5.9920    -8.2950    39.1020 nb         1 TU3      -0.626000
     23 N27         -5.7060    -9.9240    41.3040 nb         1 TU3      -0.637000
     24 O01         -6.4140    -5.8860    41.5620 o          1 TU3      -0.512100
     25 O06         -9.4390    -6.1250    36.4280 os         1 TU3      -0.323600
     26 O09         -9.4330    -3.4740    36.6030 os         1 TU3      -0.330100
     27 O12         -8.0950    -2.2050    38.5120 os         1 TU3      -0.323600
     28 O21         -5.0160   -13.1360    35.6740 oh         1 TU3      -0.532100
     29 H1          -8.0850    -7.4150    38.3680 ha         1 TU3       0.136000
     30 H2         -10.0130    -7.7410    35.3740 h1         1 TU3       0.044033
     31 H3          -8.4230    -7.9240    36.1390 h1         1 TU3       0.044033
     32 H4          -9.9040    -8.0390    37.1170 h1         1 TU3       0.044033
     33 H5          -9.3450    -2.5540    34.7960 h1         1 TU3       0.035033
     34 H6          -7.8130    -2.5230    35.6860 h1         1 TU3       0.035033
     35 H7          -8.3540    -4.0200    34.8970 h1         1 TU3       0.035033
     36 H8          -7.6100    -0.4330    39.3310 h1         1 TU3       0.044033
     37 H9          -7.8230    -1.7280    40.5230 h1         1 TU3       0.044033
     38 H10         -6.3530    -1.6670    39.5240 h1         1 TU3       0.044033
     39 H11         -6.8260    -3.8060    40.2960 ha         1 TU3       0.136000
     40 H12         -5.4970   -12.1240    38.0570 ha         1 TU3       0.112000
     41 H13         -3.6330   -12.0340    33.5350 hc         1 TU3       0.047033
     42 H14         -5.3470   -11.9740    33.1680 hc         1 TU3       0.047033
     43 H15         -4.3430   -10.5510    32.9020 hc         1 TU3       0.047033
     44 H16         -4.6490    -8.8410    34.4890 ha         1 TU3       0.119000
     45 H17         -5.1060    -8.0470    36.7660 ha         1 TU3       0.138000
     46 H18         -5.0530   -11.3700    40.0100 h4         1 TU3       0.033100
     47 H19         -6.3690    -8.3270    42.4280 h4         1 TU3       0.050100
     48 H20         -5.1860   -13.6820    36.4500 ho         1 TU3       0.464000
@<TRIPOS>BOND
     1     1     2 1   
     2     1    11 1   
     3     1    24 2   
     4     2     3 ar  
     5     2    10 ar  
     6     3     4 ar  
     7     3    29 1   
     8     4     6 ar  
     9     4    25 1   
    10     5    25 1   
    11     5    30 1   
    12     5    31 1   
    13     5    32 1   
    14     6     8 ar  
    15     6    26 1   
    16     7    26 1   
    17     7    33 1   
    18     7    34 1   
    19     7    35 1   
    20     8    10 ar  
    21     8    27 1   
    22     9    27 1   
    23     9    36 1   
    24     9    37 1   
    25     9    38 1   
    26    10    39 1   
    27    11    21 ar  
    28    11    22 ar  
    29    12    13 1   
    30    12    20 ar  
    31    12    22 ar  
    32    13    14 ar  
    33    13    19 ar  
    34    14    15 ar  
    35    14    40 1   
    36    15    16 ar  
    37    15    28 1   
    38    16    17 1   
    39    16    18 ar  
    40    17    41 1   
    41    17    42 1   
    42    17    43 1   
    43    18    19 ar  
    44    18    44 1   
    45    19    45 1   
    46    20    23 ar  
    47    20    46 1   
    48    21    23 ar  
    49    21    47 1   
    50    28    48 1   
@<TRIPOS>SUBSTRUCTURE
     1 TU3         1 TEMP              0 ****  ****    0 ROOT
