@<TRIPOS>MOLECULE
TU3
   48    50     1     0     0
SMALL
No Charge or Current Charge


@<TRIPOS>ATOM
      1 C02         -7.0570    -6.5540    40.7030 c          1 TU3       0.499200
      2 C03         -7.4920    -5.6770    39.5370 ca         1 TU3      -0.092600
      3 C04         -8.2000    -6.2030    38.4350 ca         1 TU3      -0.171500
      4 C05         -8.6030    -5.3840    37.3550 ca         1 TU3       0.139600
      5 C07         -9.5780    -7.3400    36.1660 c3         1 TU3       0.143900
      6 C08         -8.3050    -3.9860    37.3880 ca         1 TU3       0.054100
      7 C10         -9.3370    -3.4080    35.1660 c3         1 TU3       0.149900
      8 C11         -7.6180    -3.4550    38.5060 ca         1 TU3       0.139600
      9 C13         -6.6560    -1.4510    39.6090 c3         1 TU3       0.143900
     10 C14         -7.2220    -4.2960    39.5680 ca         1 TU3      -0.171500
     11 C15         -6.6000    -7.9830    40.4440 ca         1 TU3       0.233500
     12 C17         -5.7960    -9.6610    39.0230 cp         1 TU3       0.358500
     13 C18         -5.4040   -10.0730    37.6200 cp         1 TU3      -0.117500
     14 C19         -4.7520   -11.3090    37.3510 ca         1 TU3      -0.188000
     15 C20         -4.3950   -11.6840    36.0440 ca         1 TU3       0.132100
     16 C22         -4.6790   -10.8350    34.9550 ca         1 TU3      -0.087300
     17 C23         -4.3000   -11.2270    33.5300 c3         1 TU3      -0.037800
     18 C24         -5.3190    -9.6070    35.1970 ca         1 TU3      -0.088000
     19 C25         -5.6730    -9.2320    36.5040 ca         1 TU3      -0.102000
     20 C26         -5.7750   -10.5540    40.1480 ca         1 TU3       0.314900
     21 C28         -6.5530    -8.8880    41.5380 ca         1 TU3       0.332900
     22 N16         -6.2050    -8.3740    39.1900 nb         1 TU3      -0.626000
     23 N27         -6.1460   -10.1810    41.4050 nb         1 TU3      -0.637000
     24 O01         -7.0800    -6.0970    41.8440 o          1 TU3      -0.512100
     25 O06         -9.2820    -5.9360    36.2800 os         1 TU3      -0.323600
     26 O09         -8.6490    -3.0760    36.3850 os         1 TU3      -0.330100
     27 O12         -7.3470    -2.0950    38.5230 os         1 TU3      -0.323600
     28 O21         -3.7690   -12.8810    35.8410 oh         1 TU3      -0.532100
     29 H1          -8.4430    -7.2600    38.4380 ha         1 TU3       0.136000
     30 H2         -10.1050    -7.5410    35.2260 h1         1 TU3       0.044033
     31 H3          -8.6560    -7.9360    36.1710 h1         1 TU3       0.044033
     32 H4         -10.2200    -7.6730    36.9910 h1         1 TU3       0.044033
     33 H5          -9.4720    -2.5070    34.5540 h1         1 TU3       0.035033
     34 H6          -8.7600    -4.1300    34.5750 h1         1 TU3       0.035033
     35 H7         -10.3310    -3.8210    35.3760 h1         1 TU3       0.035033
     36 H8          -6.5540    -0.3770    39.4100 h1         1 TU3       0.044033
     37 H9          -7.2090    -1.5710    40.5490 h1         1 TU3       0.044033
     38 H10         -5.6490    -1.8700    39.7340 h1         1 TU3       0.044033
     39 H11         -6.6910    -3.8930    40.4250 ha         1 TU3       0.136000
     40 H12         -4.5070   -11.9840    38.1650 ha         1 TU3       0.112000
     41 H13         -3.2170   -11.3710    33.4380 hc         1 TU3       0.047033
     42 H14         -4.7900   -12.1630    33.2370 hc         1 TU3       0.047033
     43 H15         -4.5930   -10.4600    32.8030 hc         1 TU3       0.047033
     44 H16         -5.5450    -8.9360    34.3710 ha         1 TU3       0.119000
     45 H17         -6.1680    -8.2730    36.6440 ha         1 TU3       0.138000
     46 H18         -5.4670   -11.5910    40.0400 h4         1 TU3       0.033100
     47 H19         -6.8540    -8.5800    42.5380 h4         1 TU3       0.050100
     48 H20         -3.6580   -13.3260    36.7080 ho         1 TU3       0.464000
@<TRIPOS>BOND
     1     1     2 1   
     2     1    11 1   
     3     1    24 2   
     4     2     3 ar  
     5     2    10 ar  
     6     3     4 ar  
     7     3    29 1   
     8     4     6 ar  
     9     4    25 1   
    10     5    25 1   
    11     5    30 1   
    12     5    31 1   
    13     5    32 1   
    14     6     8 ar  
    15     6    26 1   
    16     7    26 1   
    17     7    33 1   
    18     7    34 1   
    19     7    35 1   
    20     8    10 ar  
    21     8    27 1   
    22     9    27 1   
    23     9    36 1   
    24     9    37 1   
    25     9    38 1   
    26    10    39 1   
    27    11    21 ar  
    28    11    22 ar  
    29    12    13 1   
    30    12    20 ar  
    31    12    22 ar  
    32    13    14 ar  
    33    13    19 ar  
    34    14    15 ar  
    35    14    40 1   
    36    15    16 ar  
    37    15    28 1   
    38    16    17 1   
    39    16    18 ar  
    40    17    41 1   
    41    17    42 1   
    42    17    43 1   
    43    18    19 ar  
    44    18    44 1   
    45    19    45 1   
    46    20    23 ar  
    47    20    46 1   
    48    21    23 ar  
    49    21    47 1   
    50    28    48 1   
@<TRIPOS>SUBSTRUCTURE
     1 TU3         1 TEMP              0 ****  ****    0 ROOT
