@<TRIPOS>MOLECULE
TU4
   47    47     1     0     0
SMALL
No Charge or Current Charge


@<TRIPOS>ATOM
      1 C13          6.5580    44.3780    -6.3360 c          1 TU4       0.602100
      2 C7           6.6200    44.3310    -4.8080 c3         1 TU4      -0.137400
      3 C8           5.6150    45.3170    -4.1670 c3         1 TU4      -0.068400
      4 C9           5.6510    45.2970    -2.6230 c3         1 TU4      -0.077400
      5 C10          4.6490    46.2820    -1.9820 c3         1 TU4      -0.074400
      6 C11          4.6850    46.2590    -0.4360 c3         1 TU4      -0.073400
      7 C12          3.7500    47.2890     0.2410 c3         1 TU4      -0.073400
      8 C1           3.6660    42.7880   -10.0620 c6         1 TU4       0.409300
      9 C2           3.9000    42.9880    -8.5270 c6         1 TU4       0.096300
     10 C3           5.3840    43.3700    -8.2520 c6         1 TU4       0.137300
     11 C4           6.3370    42.2990    -8.8800 c6         1 TU4       0.134300
     12 C5           6.0160    42.1690   -10.4060 c6         1 TU4       0.142300
     13 O2           3.0020    43.9760    -7.9660 oh         1 TU4      -0.727000
     14 O3           5.5900    43.5350    -6.8230 os         1 TU4      -0.467100
     15 O4           7.7280    42.6180    -8.6510 oh         1 TU4      -0.709000
     16 O5           4.6110    41.8380   -10.5940 os         1 TU4      -0.429000
     17 C31          2.2460    47.0400     0.0010 c3         1 TU4      -0.089100
     18 O7           7.1540    45.2100    -7.0060 o          1 TU4      -0.467000
     19 H13          6.3560    43.3210    -4.4720 hc         1 TU4       0.069200
     20 H14          7.6340    44.5920    -4.4830 hc         1 TU4       0.069200
     21 H15          5.8330    46.3340    -4.5200 hc         1 TU4       0.054700
     22 H16          4.6010    45.0720    -4.5070 hc         1 TU4       0.054700
     23 H17          5.4320    44.2810    -2.2700 hc         1 TU4       0.036700
     24 H6           6.6650    45.5430    -2.2830 hc         1 TU4       0.036700
     25 H7           4.8680    47.2990    -2.3320 hc         1 TU4       0.040700
     26 H8           3.6390    46.0340    -2.3290 hc         1 TU4       0.040700
     27 H9           4.4310    45.2520    -0.0810 hc         1 TU4       0.036200
     28 H10          5.7120    46.4570    -0.1050 hc         1 TU4       0.036200
     29 H11          3.9370    47.2700     1.3220 hc         1 TU4       0.037200
     30 H12          4.0080    48.2980    -0.1030 hc         1 TU4       0.037200
     31 H1           2.6460    42.3990   -10.2130 h2         1 TU4       0.079700
     32 H2           3.7140    42.0150    -8.0470 h1         1 TU4       0.060700
     33 H3           5.5730    44.3330    -8.7500 h1         1 TU4       0.101700
     34 H4           6.1000    41.3340    -8.4050 h1         1 TU4       0.066700
     35 H5           6.2300    43.1270   -10.9040 h1         1 TU4       0.074700
     36 HO2          3.2940    44.1100    -7.0320 ho         1 TU4       0.524000
     37 HO4          8.2230    41.7650    -8.6530 ho         1 TU4       0.511000
     38 HO6          7.1010    39.1100   -11.2050 ho         1 TU4       0.504000
     39 H34          1.6470    47.7540     0.5780 hc         1 TU4       0.031700
     40 H35          1.9890    47.1610    -1.0570 hc         1 TU4       0.031700
     41 H36          1.9650    46.0270     0.3140 hc         1 TU4       0.031700
     42 O1           3.8150    44.0200   -10.7690 oh         1 TU4      -0.689000
     43 HO1          3.2710    44.6530   -10.2490 ho         1 TU4       0.480000
     44 C6           6.8640    41.0650   -11.1220 c3         1 TU4       0.162600
     45 O6           6.6450    39.7390   -10.5980 oh         1 TU4      -0.718000
     46 H61          6.6080    41.0920   -12.1900 h1         1 TU4       0.034700
     47 H62          7.9260    41.3330   -11.0440 h1         1 TU4       0.034700
@<TRIPOS>BOND
     1     1     2 1   
     2     1    14 1   
     3     1    18 2   
     4     2     3 1   
     5     2    19 1   
     6     2    20 1   
     7     3     4 1   
     8     3    21 1   
     9     3    22 1   
    10     4     5 1   
    11     4    23 1   
    12     4    24 1   
    13     5     6 1   
    14     5    25 1   
    15     5    26 1   
    16     6     7 1   
    17     6    27 1   
    18     6    28 1   
    19     7    17 1   
    20     7    29 1   
    21     7    30 1   
    22     8     9 1   
    23     8    16 1   
    24     8    31 1   
    25     8    42 1   
    26     9    10 1   
    27     9    13 1   
    28     9    32 1   
    29    10    11 1   
    30    10    14 1   
    31    10    33 1   
    32    11    12 1   
    33    11    15 1   
    34    11    34 1   
    35    12    16 1   
    36    12    35 1   
    37    12    44 1   
    38    13    36 1   
    39    15    37 1   
    40    17    39 1   
    41    17    40 1   
    42    17    41 1   
    43    38    45 1   
    44    42    43 1   
    45    44    45 1   
    46    44    46 1   
    47    44    47 1   
@<TRIPOS>SUBSTRUCTURE
     1 TU4         1 TEMP              0 ****  ****    0 ROOT
