@<TRIPOS>MOLECULE
TU4
   47    47     1     0     0
SMALL
abcg2


@<TRIPOS>ATOM
      1 C13          5.0820    44.3290    -6.4290 c          1 TU4       0.602100
      2 C7           5.1570    44.1180    -4.9420 c3         1 TU4      -0.137400
      3 C8           4.9260    45.3830    -4.1310 c3         1 TU4      -0.068400
      4 C9           5.0640    45.1320    -2.6350 c3         1 TU4      -0.077400
      5 C10          4.7900    46.3760    -1.7980 c3         1 TU4      -0.074400
      6 C11          4.9650    46.1330    -0.3040 c3         1 TU4      -0.073400
      7 C12          4.7400    47.3670     0.5650 c3         1 TU4      -0.073400
      8 C1           3.9630    42.0080   -10.4870 c6         1 TU4       0.409300
      9 C2           3.8440    42.2350    -8.9760 c6         1 TU4       0.096300
     10 C3           4.9880    43.1170    -8.4950 c6         1 TU4       0.137300
     11 C4           6.3220    42.5200    -8.9090 c6         1 TU4       0.134300
     12 C5           6.3210    42.3310   -10.4310 c6         1 TU4       0.142300
     13 O2           2.5870    42.8170    -8.7450 oh         1 TU4      -0.727000
     14 O3           4.9270    43.1670    -7.0680 os         1 TU4      -0.467100
     15 O4           7.3430    43.3950    -8.5000 oh         1 TU4      -0.709000
     16 O5           5.2180    41.5210   -10.8180 os         1 TU4      -0.429000
     17 C31          3.3150    47.9060     0.5180 c3         1 TU4      -0.089100
     18 O7           5.1560    45.3960    -6.9800 o          1 TU4      -0.467000
     19 H13          4.4490    43.3370    -4.6530 hc         1 TU4       0.069200
     20 H14          6.1500    43.7070    -4.7260 hc         1 TU4       0.069200
     21 H15          5.6350    46.1570    -4.4340 hc         1 TU4       0.054700
     22 H16          3.9270    45.7760    -4.3440 hc         1 TU4       0.054700
     23 H17          4.3780    44.3330    -2.3310 hc         1 TU4       0.036700
     24 H6           6.0720    44.7620    -2.4210 hc         1 TU4       0.036700
     25 H7           5.4600    47.1830    -2.1140 hc         1 TU4       0.040700
     26 H8           3.7740    46.7260    -2.0070 hc         1 TU4       0.040700
     27 H9           4.2820    45.3370     0.0160 hc         1 TU4       0.036200
     28 H10          5.9760    45.7530    -0.1250 hc         1 TU4       0.036200
     29 H11          4.9920    47.1190     1.6000 hc         1 TU4       0.037200
     30 H12          5.4390    48.1540     0.2660 hc         1 TU4       0.037200
     31 H1           3.2530    41.2230   -10.7820 h2         1 TU4       0.079700
     32 H2           3.9240    41.2530    -8.4910 h1         1 TU4       0.060700
     33 H3           4.8810    44.1220    -8.9110 h1         1 TU4       0.101700
     34 H4           6.4270    41.5380    -8.4290 h1         1 TU4       0.066700
     35 H5           6.2630    43.3200   -10.9050 h1         1 TU4       0.074700
     36 HO2          2.3970    42.8050    -7.8020 ho         1 TU4       0.524000
     37 HO4          8.1440    42.8850    -8.3510 ho         1 TU4       0.511000
     38 HO6          8.6210    40.0810   -10.6050 ho         1 TU4       0.504000
     39 H34          3.1830    48.7350     1.2140 hc         1 TU4       0.031700
     40 H35          3.0470    48.2700    -0.4740 hc         1 TU4       0.031700
     41 H36          2.5950    47.1310     0.7900 hc         1 TU4       0.031700
     42 O1           3.7350    43.1830   -11.2100 oh         1 TU4      -0.689000
     43 HO1          2.9200    43.5920   -10.8960 ho         1 TU4       0.480000
     44 C6           7.5790    41.6740   -10.9550 c3         1 TU4       0.162600
     45 O6           7.7860    40.4460   -10.3010 oh         1 TU4      -0.718000
     46 H61          7.4780    41.5490   -12.0410 h1         1 TU4       0.034700
     47 H62          8.4120    42.3700   -10.7990 h1         1 TU4       0.034700
@<TRIPOS>BOND
     1     1     2 1   
     2     1    14 1   
     3     1    18 2   
     4     2     3 1   
     5     2    19 1   
     6     2    20 1   
     7     3     4 1   
     8     3    21 1   
     9     3    22 1   
    10     4     5 1   
    11     4    23 1   
    12     4    24 1   
    13     5     6 1   
    14     5    25 1   
    15     5    26 1   
    16     6     7 1   
    17     6    27 1   
    18     6    28 1   
    19     7    17 1   
    20     7    29 1   
    21     7    30 1   
    22     8     9 1   
    23     8    16 1   
    24     8    31 1   
    25     8    42 1   
    26     9    10 1   
    27     9    13 1   
    28     9    32 1   
    29    10    11 1   
    30    10    14 1   
    31    10    33 1   
    32    11    12 1   
    33    11    15 1   
    34    11    34 1   
    35    12    16 1   
    36    12    35 1   
    37    12    44 1   
    38    13    36 1   
    39    15    37 1   
    40    17    39 1   
    41    17    40 1   
    42    17    41 1   
    43    38    45 1   
    44    42    43 1   
    45    44    45 1   
    46    44    46 1   
    47    44    47 1   
@<TRIPOS>SUBSTRUCTURE
     1 TU4         1 TEMP              0 ****  ****    0 ROOT
