@<TRIPOS>MOLECULE
TU5
   27    28     1     0     0
SMALL
abcg2


@<TRIPOS>ATOM
      1 C10         27.5520    10.7000    58.1380 ca         1 TU5       0.056800
      2 C13         24.6690     9.6060    56.3100 cc         1 TU5       0.253300
      3 C17         28.4580     9.6620    58.2940 ca         1 TU5      -0.175000
      4 C02         29.7110     9.8940    58.8800 ca         1 TU5       0.319000
      5 C03         30.0170    11.1860    59.3230 ca         1 TU5      -0.147000
      6 C04         29.0910    12.2080    59.1620 ca         1 TU5      -0.125300
      7 C05         29.4660    13.5810    59.6400 c3         1 TU5       0.343300
      8 C09         27.8580    11.9930    58.5620 ca         1 TU5      -0.130000
      9 C12         26.0110     9.5120    56.5560 cd         1 TU5      -0.217000
     10 C14         23.8470     8.8420    55.3310 c3         1 TU5      -0.109400
     11 C16         25.1070    11.0500    57.8540 cd         1 TU5       0.414400
     12 F06         28.4850    14.4870    59.4640 f          1 TU5      -0.110333
     13 F07         29.7740    13.5930    60.9600 f          1 TU5      -0.110333
     14 F08         30.5590    14.0620    58.9970 f          1 TU5      -0.110333
     15 N01         30.6350     8.8760    58.9780 nv         1 TU5      -1.080000
     16 N11         26.2920    10.4440    57.5440 na         1 TU5      -0.092300
     17 N15         24.1170    10.5710    57.1370 nc         1 TU5      -0.670000
     18 H1          28.1960     8.6600    57.9800 ha         1 TU5       0.130000
     19 H2          30.9750    11.3800    59.7890 ha         1 TU5       0.133000
     20 H3          27.1630    12.8040    58.4130 ha         1 TU5       0.145000
     21 H4          26.7790     8.9050    56.1130 h4         1 TU5       0.159000
     22 H5          23.3710     9.5120    54.6110 hc         1 TU5       0.045367
     23 H6          24.4630     8.1300    54.7810 hc         1 TU5       0.045367
     24 H7          23.0520     8.2880    55.8360 hc         1 TU5       0.045367
     25 H8          25.0320    11.8050    58.6190 h5         1 TU5       0.060100
     26 H9          31.3620     8.9940    59.6680 hn         1 TU5       0.464000
     27 H10         30.2740     7.9350    58.9360 hn         1 TU5       0.464000
@<TRIPOS>BOND
     1     1     3 ar  
     2     1     8 ar  
     3     1    16 1   
     4     2     9 2   
     5     2    10 1   
     6     2    17 1   
     7     3     4 ar  
     8     3    18 1   
     9     4     5 ar  
    10     4    15 1   
    11     5     6 ar  
    12     5    19 1   
    13     6     7 1   
    14     6     8 ar  
    15     7    12 1   
    16     7    13 1   
    17     7    14 1   
    18     8    20 1   
    19     9    16 1   
    20     9    21 1   
    21    10    22 1   
    22    10    23 1   
    23    10    24 1   
    24    11    16 1   
    25    11    17 2   
    26    11    25 1   
    27    15    26 1   
    28    15    27 1   
@<TRIPOS>SUBSTRUCTURE
     1 TU5         1 TEMP              0 ****  ****    0 ROOT
