@<TRIPOS>MOLECULE
TU5
   27    28     1     0     0
SMALL
No Charge or Current Charge


@<TRIPOS>ATOM
      1 C10         27.3360    10.9530    58.1420 ca         1 TU5       0.056800
      2 C13         24.8670     9.5840    56.3180 cc         1 TU5       0.253300
      3 C17         28.0010     9.7770    58.5380 ca         1 TU5      -0.175000
      4 C02         29.2490     9.8530    59.1670 ca         1 TU5       0.319000
      5 C03         29.8390    11.1030    59.4090 ca         1 TU5      -0.147000
      6 C04         29.1850    12.2960    59.0270 ca         1 TU5      -0.125300
      7 C05         29.8360    13.6630    59.2810 c3         1 TU5       0.343300
      8 C09         27.9310    12.2040    58.3840 ca         1 TU5      -0.130000
      9 C12         26.0680    10.2430    56.2970 cd         1 TU5      -0.217000
     10 C14         24.2700     8.7420    55.2290 c3         1 TU5      -0.109400
     11 C16         25.0440    10.4480    58.2880 cd         1 TU5       0.414400
     12 F06         28.9200    14.6390    59.4790 f          1 TU5      -0.110333
     13 F07         30.6360    13.6590    60.3720 f          1 TU5      -0.110333
     14 F08         30.5990    14.0450    58.2330 f          1 TU5      -0.110333
     15 N01         29.8930     8.7050    59.5450 nv         1 TU5      -1.080000
     16 N11         26.0950    10.8980    57.5100 na         1 TU5      -0.092300
     17 N15         24.2400     9.7030    57.5320 nc         1 TU5      -0.670000
     18 H1          27.5470     8.8080    58.3530 ha         1 TU5       0.130000
     19 H2          30.8100    11.1450    59.8940 ha         1 TU5       0.133000
     20 H3          27.4130    13.1070    58.0660 ha         1 TU5       0.145000
     21 H4          26.8500    10.2980    55.5490 h4         1 TU5       0.159000
     22 H5          23.2460     9.0630    55.0050 hc         1 TU5       0.045367
     23 H6          24.8580     8.8200    54.3070 hc         1 TU5       0.045367
     24 H7          24.2410     7.6870    55.5250 hc         1 TU5       0.045367
     25 H8          24.9350    10.6910    59.3390 h5         1 TU5       0.060100
     26 H9          30.8610     8.7470    59.8580 hn         1 TU5       0.464000
     27 H10         29.5430     7.8010    59.2320 hn         1 TU5       0.464000
@<TRIPOS>BOND
     1     1     3 ar  
     2     1     8 ar  
     3     1    16 1   
     4     2     9 2   
     5     2    10 1   
     6     2    17 1   
     7     3     4 ar  
     8     3    18 1   
     9     4     5 ar  
    10     4    15 1   
    11     5     6 ar  
    12     5    19 1   
    13     6     7 1   
    14     6     8 ar  
    15     7    12 1   
    16     7    13 1   
    17     7    14 1   
    18     8    20 1   
    19     9    16 1   
    20     9    21 1   
    21    10    22 1   
    22    10    23 1   
    23    10    24 1   
    24    11    16 1   
    25    11    17 2   
    26    11    25 1   
    27    15    26 1   
    28    15    27 1   
@<TRIPOS>SUBSTRUCTURE
     1 TU5         1 TEMP              0 ****  ****    0 ROOT
