@<TRIPOS>MOLECULE
TU6
   32    33     1     0     0
SMALL
abcg2


@<TRIPOS>ATOM
      1 N1         -13.8240    -3.2750   -18.8290 nb         1 TU6      -0.245000
      2 C4         -13.6560    -2.4840   -17.7680 ca         1 TU6       0.172300
      3 C5         -14.7620    -2.5850   -16.7440 c3         1 TU6       0.121300
      4 C6         -10.5020     0.0170   -17.0240 c6         1 TU6       0.229300
      5 C7          -9.0440    -0.0250   -16.5770 c6         1 TU6      -0.092400
      6 C8          -8.1010     0.6050   -17.6250 c6         1 TU6      -0.074400
      7 C10         -9.6130    -0.5540   -19.2970 c6         1 TU6       0.229300
      8 N          -12.6560    -1.6470   -17.5500 nb         1 TU6      -0.238000
      9 C          -13.0280    -4.1120   -20.9610 c3         1 TU6      -0.147400
     10 O          -14.4940    -1.7980   -15.5940 oh         1 TU6      -0.641000
     11 C1         -12.8590    -3.2190   -19.7690 ca         1 TU6       0.156300
     12 C2         -11.7650    -2.3890   -19.6410 ca         1 TU6      -0.303000
     13 C3         -11.6820    -1.5750   -18.4870 ca         1 TU6       0.394900
     14 C9          -8.7700     0.6790   -19.0030 c6         1 TU6      -0.092400
     15 N2         -10.6610    -0.7180   -18.2830 nh         1 TU6      -0.787300
     16 H1         -15.6940    -2.2680   -17.2290 h1         1 TU6       0.041700
     17 H2         -14.8780    -3.6430   -16.4820 h1         1 TU6       0.041700
     18 H4         -11.1480    -0.4450   -16.2850 h1         1 TU6       0.055200
     19 H5          -8.7740    -1.0700   -16.4070 hc         1 TU6       0.050950
     20 H6          -8.9550     0.4860   -15.6170 hc         1 TU6       0.050950
     21 H7          -7.1850     0.0140   -17.6920 hc         1 TU6       0.042700
     22 H8          -7.8060     1.6100   -17.3170 hc         1 TU6       0.042700
     23 H9         -10.0800    -0.4530   -20.2780 h1         1 TU6       0.055200
     24 H10         -8.9770    -1.4480   -19.3290 h1         1 TU6       0.055200
     25 H11        -13.0750    -5.1560   -20.6430 hc         1 TU6       0.052700
     26 H12        -13.9700    -3.8860   -21.4660 hc         1 TU6       0.052700
     27 H13        -12.2090    -3.9950   -21.6700 hc         1 TU6       0.052700
     28 H14        -15.2390    -1.9060   -14.9900 ho         1 TU6       0.439000
     29 H15        -11.0000    -2.3830   -20.4010 ha         1 TU6       0.126000
     30 H16         -8.0210     0.7820   -19.7900 hc         1 TU6       0.050950
     31 H17         -9.4110     1.5620   -19.0620 hc         1 TU6       0.050950
     32 H3         -10.8370     1.0520   -17.1500 h1         1 TU6       0.055200
@<TRIPOS>BOND
     1     1     2 ar  
     2     1    11 ar  
     3     2     3 1   
     4     2     8 ar  
     5     3    10 1   
     6     3    16 1   
     7     3    17 1   
     8     4     5 1   
     9     4    15 1   
    10     4    18 1   
    11     4    32 1   
    12     5     6 1   
    13     5    19 1   
    14     5    20 1   
    15     6    14 1   
    16     6    21 1   
    17     6    22 1   
    18     7    14 1   
    19     7    15 1   
    20     7    23 1   
    21     7    24 1   
    22     8    13 ar  
    23     9    11 1   
    24     9    25 1   
    25     9    26 1   
    26     9    27 1   
    27    10    28 1   
    28    11    12 ar  
    29    12    13 ar  
    30    12    29 1   
    31    13    15 1   
    32    14    30 1   
    33    14    31 1   
@<TRIPOS>SUBSTRUCTURE
     1 TU6         1 TEMP              0 ****  ****    0 ROOT
