@<TRIPOS>MOLECULE
TU6
   32    33     1     0     0
SMALL
No Charge or Current Charge


@<TRIPOS>ATOM
      1 N1         -13.9370    -3.2010   -18.8470 nb         1 TU6      -0.245000
      2 C4         -13.7940    -2.3100   -17.8410 ca         1 TU6       0.172300
      3 C5         -14.9750    -2.1520   -16.8800 c3         1 TU6       0.121300
      4 C6         -10.2980    -0.2050   -16.8880 c6         1 TU6       0.229300
      5 C7          -8.7900     0.0340   -16.6290 c6         1 TU6      -0.092400
      6 C8          -8.1330     0.9190   -17.7210 c6         1 TU6      -0.074400
      7 C10         -9.5280    -0.5780   -19.2880 c6         1 TU6       0.229300
      8 N          -12.7080    -1.5420   -17.6080 nb         1 TU6      -0.238000
      9 C          -13.0420    -4.3420   -20.8160 c3         1 TU6      -0.147400
     10 O          -14.8760    -3.0520   -15.7610 oh         1 TU6      -0.641000
     11 C1         -12.8960    -3.3340   -19.6910 ca         1 TU6       0.156300
     12 C2         -11.7230    -2.5810   -19.5270 ca         1 TU6      -0.303000
     13 C3         -11.6670    -1.6740   -18.4550 ca         1 TU6       0.394900
     14 C9          -8.8610     0.8050   -19.0870 c6         1 TU6      -0.092400
     15 N2         -10.5260    -0.8720   -18.2110 nh         1 TU6      -0.787300
     16 H1         -15.0100    -1.1120   -16.5280 h1         1 TU6       0.041700
     17 H2         -15.9080    -2.3350   -17.4300 h1         1 TU6       0.041700
     18 H4         -10.6860    -0.8300   -16.0700 h1         1 TU6       0.055200
     19 H5          -8.2810    -0.9380   -16.5930 hc         1 TU6       0.050950
     20 H6          -8.6460     0.4910   -15.6410 hc         1 TU6       0.050950
     21 H7          -7.0790     0.6300   -17.8330 hc         1 TU6       0.042700
     22 H8          -8.1310     1.9710   -17.4020 hc         1 TU6       0.042700
     23 H9         -10.0180    -0.5750   -20.2730 h1         1 TU6       0.055200
     24 H10         -8.7530    -1.3600   -19.3090 h1         1 TU6       0.055200
     25 H11        -12.7680    -5.3470   -20.4750 hc         1 TU6       0.052700
     26 H12        -14.0730    -4.3810   -21.1870 hc         1 TU6       0.052700
     27 H13        -12.3950    -4.0880   -21.6640 hc         1 TU6       0.052700
     28 H14        -15.6630    -2.8960   -15.1930 ho         1 TU6       0.439000
     29 H15        -10.8870    -2.7140   -20.2050 ha         1 TU6       0.126000
     30 H16         -8.1550     1.0040   -19.9050 hc         1 TU6       0.050950
     31 H17         -9.6340     1.5820   -19.1550 hc         1 TU6       0.050950
     32 H3         -10.8330     0.7560   -16.8500 h1         1 TU6       0.055200
@<TRIPOS>BOND
     1     1     2 ar  
     2     1    11 ar  
     3     2     3 1   
     4     2     8 ar  
     5     3    10 1   
     6     3    16 1   
     7     3    17 1   
     8     4     5 1   
     9     4    15 1   
    10     4    18 1   
    11     4    32 1   
    12     5     6 1   
    13     5    19 1   
    14     5    20 1   
    15     6    14 1   
    16     6    21 1   
    17     6    22 1   
    18     7    14 1   
    19     7    15 1   
    20     7    23 1   
    21     7    24 1   
    22     8    13 ar  
    23     9    11 1   
    24     9    25 1   
    25     9    26 1   
    26     9    27 1   
    27    10    28 1   
    28    11    12 ar  
    29    12    13 ar  
    30    12    29 1   
    31    13    15 1   
    32    14    30 1   
    33    14    31 1   
@<TRIPOS>SUBSTRUCTURE
     1 TU6         1 TEMP              0 ****  ****    0 ROOT
