@<TRIPOS>MOLECULE
TU7
   37    39     1     0     0
SMALL
No Charge or Current Charge


@<TRIPOS>ATOM
      1 C11        -35.1610   -53.0620   -23.4170 c          1 TU7       0.625700
      2 C14        -36.5250   -55.0630   -24.0830 c6         1 TU7       0.061000
      3 C15        -36.4760   -56.3670   -24.9270 c6         1 TU7       0.196600
      4 C01        -31.8090   -51.5260   -24.5030 ca         1 TU7      -0.101000
      5 C02        -31.4050   -50.9110   -23.3090 ca         1 TU7       0.134000
      6 C03        -32.2230   -50.9790   -22.1720 ca         1 TU7      -0.105000
      7 C04        -33.4420   -51.6760   -22.2250 ca         1 TU7      -0.065000
      8 C05        -33.8450   -52.3280   -23.4110 ca         1 TU7      -0.136600
      9 C06        -33.0260   -52.2270   -24.5620 ca         1 TU7       0.146000
     10 C19        -34.1130   -56.5880   -24.6010 c6         1 TU7       0.138600
     11 C20        -34.0430   -55.3000   -23.7430 c6         1 TU7       0.066000
     12 C26        -37.7910   -57.1520   -24.8630 ca         1 TU7      -0.087300
     13 C28        -38.2080   -57.7580   -23.6590 ca         1 TU7      -0.090000
     14 C29        -39.4190   -58.4710   -23.6060 ca         1 TU7      -0.114000
     15 C30        -40.2200   -58.5850   -24.7540 ca         1 TU7      -0.103000
     16 C31        -39.8100   -57.9850   -25.9570 ca         1 TU7      -0.114000
     17 C32        -38.5990   -57.2720   -26.0120 ca         1 TU7      -0.090000
     18 N13        -35.2030   -54.3720   -23.9450 n          1 TU7      -0.403800
     19 O18        -35.4040   -57.2120   -24.4680 os         1 TU7      -0.444000
     20 O25        -36.1810   -52.5040   -23.0290 o          1 TU7      -0.577100
     21 Cl12       -33.5150   -52.8900   -26.1240 cl         1 TU7      -0.181000
     22 H1         -37.2480   -54.3770   -24.5480 h1         1 TU7       0.073700
     23 H2         -36.9040   -55.2970   -23.0790 h1         1 TU7       0.073700
     24 H3         -36.2740   -56.0970   -25.9740 h1         1 TU7       0.051700
     25 H4         -31.1850   -51.4490   -25.3880 ha         1 TU7       0.148000
     26 H5         -31.9140   -50.4900   -21.2520 ha         1 TU7       0.138000
     27 H6         -34.0700   -51.7230   -21.3370 ha         1 TU7       0.132000
     28 H7         -33.3350   -57.2950   -24.2790 h1         1 TU7       0.057700
     29 H8         -33.9350   -56.3440   -25.6580 h1         1 TU7       0.057700
     30 H9         -34.0100   -55.5870   -22.6820 h1         1 TU7       0.060700
     31 H10        -33.0950   -54.7920   -23.9620 h1         1 TU7       0.060700
     32 H11        -37.5920   -57.6790   -22.7660 ha         1 TU7       0.118000
     33 H12        -39.7350   -58.9360   -22.6740 ha         1 TU7       0.113500
     34 H13        -41.1570   -59.1360   -24.7120 ha         1 TU7       0.113000
     35 H14        -40.4290   -58.0730   -26.8460 ha         1 TU7       0.113500
     36 H15        -38.2920   -56.8110   -26.9480 ha         1 TU7       0.118000
     37 Cl08       -29.8820   -50.0340   -23.2450 cl         1 TU7      -0.185000
@<TRIPOS>BOND
     1     1     8 1   
     2     1    18 1   
     3     1    20 2   
     4     2     3 1   
     5     2    18 1   
     6     2    22 1   
     7     2    23 1   
     8     3    12 1   
     9     3    19 1   
    10     3    24 1   
    11     4     5 ar  
    12     4     9 ar  
    13     4    25 1   
    14     5     6 ar  
    15     5    37 1   
    16     6     7 ar  
    17     6    26 1   
    18     7     8 ar  
    19     7    27 1   
    20     8     9 ar  
    21     9    21 1   
    22    10    11 1   
    23    10    19 1   
    24    10    28 1   
    25    10    29 1   
    26    11    18 1   
    27    11    30 1   
    28    11    31 1   
    29    12    13 ar  
    30    12    17 ar  
    31    13    14 ar  
    32    13    32 1   
    33    14    15 ar  
    34    14    33 1   
    35    15    16 ar  
    36    15    34 1   
    37    16    17 ar  
    38    16    35 1   
    39    17    36 1   
@<TRIPOS>SUBSTRUCTURE
     1 TU7         1 TEMP              0 ****  ****    0 ROOT
