@<TRIPOS>MOLECULE
TU7
   37    39     1     0     0
SMALL
abcg2


@<TRIPOS>ATOM
      1 C11        -35.2560   -53.0840   -23.8200 c          1 TU7       0.625700
      2 C14        -36.5700   -55.1320   -23.7390 c6         1 TU7       0.061000
      3 C15        -36.4150   -56.2620   -24.7590 c6         1 TU7       0.196600
      4 C01        -31.8460   -51.6530   -24.6960 ca         1 TU7      -0.101000
      5 C02        -31.4980   -51.0810   -23.4830 ca         1 TU7       0.134000
      6 C03        -32.3260   -51.1720   -22.3750 ca         1 TU7      -0.105000
      7 C04        -33.5280   -51.8510   -22.4920 ca         1 TU7      -0.065000
      8 C05        -33.9040   -52.4420   -23.6910 ca         1 TU7      -0.136600
      9 C06        -33.0530   -52.3260   -24.7820 ca         1 TU7       0.146000
     10 C19        -34.1160   -56.3890   -24.3260 c6         1 TU7       0.138600
     11 C20        -34.1920   -55.2700   -23.3030 c6         1 TU7       0.066000
     12 C26        -37.6740   -57.0810   -24.8180 ca         1 TU7      -0.087300
     13 C28        -37.9370   -58.0610   -23.8630 ca         1 TU7      -0.090000
     14 C29        -39.1300   -58.7700   -23.8970 ca         1 TU7      -0.114000
     15 C30        -40.0750   -58.5050   -24.8810 ca         1 TU7      -0.103000
     16 C31        -39.8190   -57.5270   -25.8330 ca         1 TU7      -0.114000
     17 C32        -38.6240   -56.8220   -25.8010 ca         1 TU7      -0.090000
     18 N13        -35.3180   -54.4090   -23.6150 n          1 TU7      -0.403800
     19 O18        -35.3340   -57.0980   -24.4110 os         1 TU7      -0.444000
     20 O25        -36.2220   -52.3830   -24.0790 o          1 TU7      -0.577100
     21 CL12       -33.4990   -53.0530   -26.2870 cl         1 TU7      -0.181000
     22 H1         -37.3610   -54.4540   -24.0470 h1         1 TU7       0.073700
     23 H2         -36.8420   -55.5480   -22.7620 h1         1 TU7       0.073700
     24 H3         -36.2330   -55.8040   -25.7440 h1         1 TU7       0.051700
     25 H4         -31.1950   -51.5760   -25.5550 ha         1 TU7       0.148000
     26 H5         -32.0430   -50.7210   -21.4340 ha         1 TU7       0.138000
     27 H6         -34.1780   -51.9270   -21.6300 ha         1 TU7       0.132000
     28 H7         -33.3450   -57.1040   -24.0380 h1         1 TU7       0.057700
     29 H8         -33.8470   -55.9710   -25.3040 h1         1 TU7       0.057700
     30 H9         -34.3260   -55.6840   -22.2980 h1         1 TU7       0.060700
     31 H10        -33.2590   -54.7090   -23.3020 h1         1 TU7       0.060700
     32 H11        -37.2100   -58.2750   -23.0900 ha         1 TU7       0.118000
     33 H12        -39.3220   -59.5300   -23.1510 ha         1 TU7       0.113500
     34 H13        -41.0050   -59.0580   -24.9050 ha         1 TU7       0.113000
     35 H14        -40.5490   -57.3160   -26.6040 ha         1 TU7       0.113500
     36 H15        -38.4280   -56.0650   -26.5510 ha         1 TU7       0.118000
     37 CL08       -29.9950   -50.2360   -23.3550 cl         1 TU7      -0.185000
@<TRIPOS>BOND
     1     1     8 1   
     2     1    18 1   
     3     1    20 2   
     4     2     3 1   
     5     2    18 1   
     6     2    22 1   
     7     2    23 1   
     8     3    12 1   
     9     3    19 1   
    10     3    24 1   
    11     4     5 ar  
    12     4     9 ar  
    13     4    25 1   
    14     5     6 ar  
    15     5    37 1   
    16     6     7 ar  
    17     6    26 1   
    18     7     8 ar  
    19     7    27 1   
    20     8     9 ar  
    21     9    21 1   
    22    10    11 1   
    23    10    19 1   
    24    10    28 1   
    25    10    29 1   
    26    11    18 1   
    27    11    30 1   
    28    11    31 1   
    29    12    13 ar  
    30    12    17 ar  
    31    13    14 ar  
    32    13    32 1   
    33    14    15 ar  
    34    14    33 1   
    35    15    16 ar  
    36    15    34 1   
    37    16    17 ar  
    38    16    35 1   
    39    17    36 1   
@<TRIPOS>SUBSTRUCTURE
     1 TU7         1 TEMP              0 ****  ****    0 ROOT
