@<TRIPOS>MOLECULE
TU8
   34    37     1     0     0
SMALL
No Charge or Current Charge


@<TRIPOS>ATOM
      1 N1           9.5620    -0.6890    22.3210 ns         1 TU8      -0.509900
      2 N3           6.5780     0.5970    17.6610 nb         1 TU8      -0.637000
      3 C4          11.2380     1.9650    24.3190 c5         1 TU8      -0.032100
      4 C5          12.3020     1.3370    23.4500 ca         1 TU8      -0.061300
      5 C6          13.6920     1.4730    23.5910 ca         1 TU8      -0.098000
      6 C7          14.5370     0.8190    22.6740 ca         1 TU8      -0.093000
      7 C8          13.9870     0.0430    21.6310 ca         1 TU8      -0.114000
      8 C10         11.7660     0.5780    22.4290 ca         1 TU8      -0.116300
      9 C13          7.4090     0.2480    18.6750 ca         1 TU8       0.341900
     10 C15          6.2270     2.7320    18.7690 ca         1 TU8       0.125000
     11 C1           8.5930    -0.6070    21.3700 c          1 TU8       0.624000
     12 C11          9.5700     1.4960    21.4010 c          1 TU8       0.574000
     13 C12          7.7020     1.0960    19.7740 ca         1 TU8      -0.060000
     14 C14          6.0000     1.8230    17.7160 ca         1 TU8       0.310900
     15 C16          7.0900     2.3680    19.8150 ca         1 TU8      -0.101000
     16 C2          10.2640     0.5880    22.4690 c5         1 TU8       0.084700
     17 C3           9.9810     1.0880    23.9410 c5         1 TU8      -0.073400
     18 C9          12.5900    -0.0810    21.5020 ca         1 TU8      -0.073000
     19 N2           8.5990     0.6710    20.8280 n          1 TU8      -0.231000
     20 O1           7.8460    -1.5230    21.0690 o          1 TU8      -0.526000
     21 O2           9.8210     2.6520    21.0810 o          1 TU8      -0.475000
     22 H1           9.7170    -1.5530    22.8270 hn         1 TU8       0.354500
     23 H2          11.4710     1.9150    25.3890 hc         1 TU8       0.067200
     24 H3          11.0860     3.0200    24.0610 hc         1 TU8       0.067200
     25 H4          14.1100     2.0750    24.3950 ha         1 TU8       0.119000
     26 H5          15.6170     0.9130    22.7690 ha         1 TU8       0.116000
     27 H6          14.6440    -0.4600    20.9240 ha         1 TU8       0.118000
     28 H7           7.8680    -0.7360    18.5900 h4         1 TU8       0.033100
     29 H8           5.3340     2.0850    16.8940 h4         1 TU8       0.040100
     30 H9           7.2620     3.0580    20.6370 ha         1 TU8       0.146000
     31 H10          9.0380     1.6390    24.0340 hc         1 TU8       0.060700
     32 H11          9.9150     0.2390    24.6330 hc         1 TU8       0.060700
     33 H12         12.1590    -0.6760    20.6990 ha         1 TU8       0.121000
     34 F1           5.6220     3.9420    18.7780 f          1 TU8      -0.164000
@<TRIPOS>BOND
     1     1    11 1   
     2     1    16 1   
     3     1    22 1   
     4     2     9 ar  
     5     2    14 ar  
     6     3     4 1   
     7     3    17 1   
     8     3    23 1   
     9     3    24 1   
    10     4     5 ar  
    11     4     8 ar  
    12     5     6 ar  
    13     5    25 1   
    14     6     7 ar  
    15     6    26 1   
    16     7    18 ar  
    17     7    27 1   
    18     8    16 1   
    19     8    18 ar  
    20     9    13 ar  
    21     9    28 1   
    22    10    14 ar  
    23    10    15 ar  
    24    10    34 1   
    25    11    19 1   
    26    11    20 2   
    27    12    16 1   
    28    12    19 1   
    29    12    21 2   
    30    13    15 ar  
    31    13    19 1   
    32    14    29 1   
    33    15    30 1   
    34    16    17 1   
    35    17    31 1   
    36    17    32 1   
    37    18    33 1   
@<TRIPOS>SUBSTRUCTURE
     1 TU8         1 TEMP              0 ****  ****    0 ROOT
