@<TRIPOS>MOLECULE
TU8
   34    37     1     0     0
SMALL
bcc


@<TRIPOS>ATOM
      1 N1           9.3570    -0.4890    22.5750 ns         1 TU8      -0.576900
      2 N3           7.4920     1.1160    17.4930 nb         1 TU8      -0.637000
      3 C4          11.4310     2.1830    24.1360 c5         1 TU8      -0.032100
      4 C5          12.3560     1.3550    23.2900 ca         1 TU8      -0.061300
      5 C6          13.7420     1.3500    23.2540 ca         1 TU8      -0.116000
      6 C7          14.3890     0.4860    22.3780 ca         1 TU8      -0.111000
      7 C8          13.6630    -0.3620    21.5470 ca         1 TU8      -0.132000
      8 C10         11.6400     0.5050    22.4590 ca         1 TU8      -0.116300
      9 C13          8.1800     0.7840    18.5750 ca         1 TU8       0.407200
     10 C15          5.9570     2.2680    18.8750 ca         1 TU8       0.024600
     11 C1           8.4220    -0.4590    21.6100 c          1 TU8       0.833500
     12 C11          9.5740     1.5320    21.5180 c          1 TU8       0.716500
     13 C12          7.7950     1.1690    19.8510 ca         1 TU8      -0.032700
     14 C14          6.3970     1.8470    17.6320 ca         1 TU8       0.376200
     15 C16          6.6530     1.9360    20.0180 ca         1 TU8      -0.119000
     16 C2          10.1560     0.7030    22.6570 c5         1 TU8       0.084700
     17 C3          10.0890     1.4520    24.0060 c5         1 TU8      -0.073400
     18 C9          12.2730    -0.3570    21.5800 ca         1 TU8      -0.091000
     19 N2           8.5700     0.7830    20.9630 n          1 TU8      -0.457600
     20 O1           7.6000    -1.2880    21.3070 o          1 TU8      -0.601500
     21 O2           9.9220     2.6300    21.1690 o          1 TU8      -0.550500
     22 H1           9.4310    -1.2510    23.2310 hn         1 TU8       0.354500
     23 H2          11.7610     2.2580    25.1730 hc         1 TU8       0.067200
     24 H3          11.3660     3.2030    23.7480 hc         1 TU8       0.067200
     25 H4          14.3150     2.0010    23.9020 ha         1 TU8       0.137000
     26 H5          15.4710     0.4680    22.3450 ha         1 TU8       0.134000
     27 H6          14.1830    -1.0320    20.8750 ha         1 TU8       0.136000
     28 H7           9.0740     0.1860    18.4360 h4         1 TU8       0.033100
     29 H8           5.8460     2.1130    16.7360 h4         1 TU8       0.040100
     30 H9           6.3220     2.2530    20.9990 ha         1 TU8       0.164000
     31 H10          9.2220     2.1090    24.0810 hc         1 TU8       0.060700
     32 H11          9.9980     0.7010    24.7930 hc         1 TU8       0.060700
     33 H12         11.7040    -1.0200    20.9400 ha         1 TU8       0.139000
     34 F1           4.8460     3.0020    18.9620 f          1 TU8      -0.128900
@<TRIPOS>BOND
     1     1    11 1   
     2     1    16 1   
     3     1    22 1   
     4     2     9 ar  
     5     2    14 ar  
     6     3     4 1   
     7     3    17 1   
     8     3    23 1   
     9     3    24 1   
    10     4     5 ar  
    11     4     8 ar  
    12     5     6 ar  
    13     5    25 1   
    14     6     7 ar  
    15     6    26 1   
    16     7    18 ar  
    17     7    27 1   
    18     8    16 1   
    19     8    18 ar  
    20     9    13 ar  
    21     9    28 1   
    22    10    14 ar  
    23    10    15 ar  
    24    10    34 1   
    25    11    19 1   
    26    11    20 2   
    27    12    16 1   
    28    12    19 1   
    29    12    21 2   
    30    13    15 ar  
    31    13    19 1   
    32    14    29 1   
    33    15    30 1   
    34    16    17 1   
    35    17    31 1   
    36    17    32 1   
    37    18    33 1   
@<TRIPOS>SUBSTRUCTURE
     1 TU8         1 TEMP              0 ****  ****    0 ROOT
