@<TRIPOS>MOLECULE
TU9
   70    75     1     0     0
SMALL
No Charge or Current Charge


@<TRIPOS>ATOM
      1 N1          31.3020     0.9650   -28.4420 n          1 TU9      -0.374800
      2 C4          27.2900    -0.4280   -27.9660 ca         1 TU9      -0.147000
      3 C5          28.6270     0.0110   -28.0000 ca         1 TU9      -0.028300
      4 C6          28.9320     1.3570   -27.6890 ca         1 TU9      -0.122300
      5 C7          29.7330    -0.9710   -28.3900 c6         1 TU9      -0.011100
      6 C8          31.1490    -0.4540   -28.0780 cx         1 TU9       0.050400
      7 C10         32.2450     1.4930   -29.3660 c          1 TU9       0.619700
      8 C13         35.0610    -0.0200   -31.4630 ca         1 TU9      -0.117500
      9 C15         33.0280    -1.2650   -31.9280 ca         1 TU9      -0.117500
     10 C17         30.9030     2.2060   -26.2880 ca         1 TU9      -0.136300
     11 C20         31.8840     2.8440   -23.7110 ca         1 TU9       0.147100
     12 C21         32.3610     3.5360   -24.8440 ca         1 TU9      -0.177000
     13 C22         31.8710     3.2170   -26.1220 ca         1 TU9      -0.058500
     14 C24         33.5630     4.1540   -20.6370 c5         1 TU9      -0.067700
     15 C26         32.9600     5.2090   -18.5620 c5         1 TU9       0.154800
     16 C1          27.8900     2.2420   -27.3450 ca         1 TU9      -0.057000
     17 C11         32.9820     0.5800   -30.3200 ca         1 TU9      -0.131600
     18 C12         34.3550     0.8000   -30.5670 ca         1 TU9      -0.077000
     19 C14         34.4000    -1.0580   -32.1390 ca         1 TU9      -0.097000
     20 C16         32.3200    -0.4460   -31.0310 ca         1 TU9      -0.077000
     21 C18         30.4260     1.5220   -25.1490 ca         1 TU9      -0.058500
     22 C19         30.9180     1.8410   -23.8720 ca         1 TU9      -0.177000
     23 C2          26.5580     1.7950   -27.3120 ca         1 TU9      -0.199000
     24 C23         33.3150     4.1240   -22.1610 c3         1 TU9       0.168600
     25 C25         32.3100     4.5310   -19.7850 c5         1 TU9      -0.070400
     26 C27         34.6380     5.1950   -20.1840 c5         1 TU9       0.158800
     27 C29         35.6190     7.9580   -19.1650 c3         1 TU9      -0.090100
     28 C3          26.2610     0.4600   -27.6230 ca         1 TU9       0.138100
     29 C30         32.2910    -1.4590   -28.0780 cx         1 TU9      -0.119900
     30 C31         31.7620    -0.9380   -26.7750 cx         1 TU9      -0.119900
     31 C9          30.3830     1.8750   -27.7000 c6         1 TU9       0.214300
     32 N2          33.9040     6.1000   -19.2620 n3         1 TU9      -0.723600
     33 O1          24.9710     0.0220   -27.5940 oh         1 TU9      -0.539100
     34 O2          32.4420     2.7020   -29.4320 o          1 TU9      -0.606100
     35 O3          32.3280     3.1120   -22.4330 os         1 TU9      -0.359100
     36 H1          27.0490    -1.4590   -28.2090 ha         1 TU9       0.128000
     37 H2          29.6520    -1.1800   -29.4640 hc         1 TU9       0.059700
     38 H3          29.5660    -1.9330   -27.8880 hc         1 TU9       0.059700
     39 H4          36.1220     0.1510   -31.6350 ha         1 TU9       0.115500
     40 H5          32.5090    -2.0560   -32.4650 ha         1 TU9       0.115500
     41 H6          33.1080     4.3190   -24.7550 ha         1 TU9       0.122500
     42 H7          32.2470     3.7590   -26.9870 ha         1 TU9       0.125000
     43 H8          33.9100     3.1500   -20.3640 hc         1 TU9       0.062700
     44 H10         32.2270     5.7620   -17.9570 h1         1 TU9       0.036200
     45 H11         34.0810     7.5370   -17.7240 h1         1 TU9       0.028700
     46 H12         35.3800     6.3390   -17.7560 h1         1 TU9       0.028700
     47 H13         28.1150     3.2780   -27.0990 ha         1 TU9       0.121000
     48 H14         34.8780     1.6030   -30.0500 ha         1 TU9       0.121500
     49 H15         34.9470    -1.6920   -32.8340 ha         1 TU9       0.114000
     50 H16         31.2530    -0.5980   -30.9070 ha         1 TU9       0.121500
     51 H17         29.6820     0.7350   -25.2470 ha         1 TU9       0.125000
     52 H18         30.5480     1.3060   -23.0020 ha         1 TU9       0.122500
     53 H19         25.7660     2.4900   -27.0440 ha         1 TU9       0.116000
     54 H20         34.2580     3.8940   -22.6760 h1         1 TU9       0.042700
     55 H21         32.9650     5.1110   -22.4920 h1         1 TU9       0.042700
     56 H22         31.6520     5.2300   -20.3150 hc         1 TU9       0.055700
     57 H23         31.7070     3.6580   -19.5100 hc         1 TU9       0.055700
     58 H24         35.4640     4.6860   -19.6660 h1         1 TU9       0.039200
     59 H25         35.0680     5.7430   -21.0340 h1         1 TU9       0.039200
     60 H26         36.1540     8.6090   -18.4640 hc         1 TU9       0.037700
     61 H27         36.3620     7.4350   -19.7780 hc         1 TU9       0.037700
     62 H28         35.0070     8.5890   -19.8200 hc         1 TU9       0.037700
     63 H29         32.0630    -2.4880   -28.3440 hc         1 TU9       0.082450
     64 H30         33.2930    -1.1380   -28.3500 hc         1 TU9       0.082450
     65 H31         31.1850    -1.6160   -26.1510 hc         1 TU9       0.082450
     66 H32         32.4010    -0.2530   -26.2230 hc         1 TU9       0.082450
     67 H33         30.3360     2.8290   -28.2470 h1         1 TU9       0.095700
     68 H35         24.3960     0.7740   -27.3370 ho         1 TU9       0.463000
     69 H9          33.4760     4.4850   -17.9150 h1         1 TU9       0.036200
     70 C28         34.7350     6.9600   -18.3930 c3         1 TU9       0.169800
@<TRIPOS>BOND
     1     1     6 1   
     2     1     7 1   
     3     1    31 1   
     4     2     3 ar  
     5     2    28 ar  
     6     2    36 1   
     7     3     4 ar  
     8     3     5 1   
     9     4    16 ar  
    10     4    31 1   
    11     5     6 1   
    12     5    37 1   
    13     5    38 1   
    14     6    29 1   
    15     6    30 1   
    16     7    17 1   
    17     7    34 2   
    18     8    18 ar  
    19     8    19 ar  
    20     8    39 1   
    21     9    19 ar  
    22     9    20 ar  
    23     9    40 1   
    24    10    13 ar  
    25    10    21 ar  
    26    10    31 1   
    27    11    12 ar  
    28    11    22 ar  
    29    11    35 1   
    30    12    13 ar  
    31    12    41 1   
    32    13    42 1   
    33    14    24 1   
    34    14    25 1   
    35    14    26 1   
    36    14    43 1   
    37    15    25 1   
    38    15    32 1   
    39    15    44 1   
    40    15    69 1   
    41    16    23 ar  
    42    16    47 1   
    43    17    18 ar  
    44    17    20 ar  
    45    18    48 1   
    46    19    49 1   
    47    20    50 1   
    48    21    22 ar  
    49    21    51 1   
    50    22    52 1   
    51    23    28 ar  
    52    23    53 1   
    53    24    35 1   
    54    24    54 1   
    55    24    55 1   
    56    25    56 1   
    57    25    57 1   
    58    26    32 1   
    59    26    58 1   
    60    26    59 1   
    61    27    60 1   
    62    27    61 1   
    63    27    62 1   
    64    27    70 1   
    65    28    33 1   
    66    29    30 1   
    67    29    63 1   
    68    29    64 1   
    69    30    65 1   
    70    30    66 1   
    71    31    67 1   
    72    32    70 1   
    73    33    68 1   
    74    45    70 1   
    75    46    70 1   
@<TRIPOS>SUBSTRUCTURE
     1 TU9         1 TEMP              0 ****  ****    0 ROOT
