@<TRIPOS>MOLECULE
TU9
   70    75     1     0     0
SMALL
abcg2


@<TRIPOS>ATOM
      1 N1          31.3000     1.1390   -28.2460 n          1 TU9      -0.374800
      2 C4          27.4790    -0.5640   -28.0570 ca         1 TU9      -0.147000
      3 C5          28.7640    -0.0260   -27.9860 ca         1 TU9      -0.028300
      4 C6          28.9310     1.3200   -27.6510 ca         1 TU9      -0.122300
      5 C7          29.9500    -0.9010   -28.3120 c6         1 TU9      -0.011100
      6 C8          31.2560    -0.2640   -27.8980 cx         1 TU9       0.050400
      7 C10         32.0630     1.7270   -29.2010 c          1 TU9       0.619700
      8 C13         35.0210     0.3320   -31.0820 ca         1 TU9      -0.117500
      9 C15         33.0430    -0.8100   -31.8470 ca         1 TU9      -0.117500
     10 C17         30.7360     2.2450   -26.1020 ca         1 TU9      -0.136300
     11 C20         31.6890     2.7310   -23.5040 ca         1 TU9       0.147100
     12 C21         32.3430     3.2850   -24.6060 ca         1 TU9      -0.177000
     13 C22         31.8590     3.0390   -25.8860 ca         1 TU9      -0.058500
     14 C24         33.4250     3.7940   -20.4470 c5         1 TU9      -0.067700
     15 C26         32.8460     5.6360   -18.9630 c5         1 TU9       0.154800
     16 C1          27.8020     2.1010   -27.4050 ca         1 TU9      -0.057000
     17 C11         32.8740     0.8640   -30.1190 ca         1 TU9      -0.131600
     18 C12         34.2490     1.0800   -30.2020 ca         1 TU9      -0.077000
     19 C14         34.4190    -0.6160   -31.9070 ca         1 TU9      -0.097000
     20 C16         32.2730    -0.0780   -30.9500 ca         1 TU9      -0.077000
     21 C18         30.0880     1.7070   -24.9910 ca         1 TU9      -0.058500
     22 C19         30.5540     1.9440   -23.7070 ca         1 TU9      -0.177000
     23 C2          26.5240     1.5700   -27.4750 ca         1 TU9      -0.199000
     24 C23         33.2300     3.7140   -21.9480 c3         1 TU9       0.168600
     25 C25         32.2260     4.4600   -19.7190 c5         1 TU9      -0.070400
     26 C27         34.6190     4.7050   -20.1070 c5         1 TU9       0.158800
     27 C29         36.0120     7.4350   -20.0430 c3         1 TU9      -0.090100
     28 C3          26.3640     0.2230   -27.8000 ca         1 TU9       0.138100
     29 C30         32.4960    -1.1000   -27.8560 cx         1 TU9      -0.119900
     30 C31         31.8500    -0.6770   -26.5690 cx         1 TU9      -0.119900
     31 C9          30.2990     1.9590   -27.5340 c6         1 TU9       0.214300
     32 N2          34.0080     5.9920   -19.7750 n3         1 TU9      -0.723600
     33 O1          25.1330    -0.3670   -27.8840 oh         1 TU9      -0.539100
     34 O2          32.1070     2.9530   -29.3480 o          1 TU9      -0.606100
     35 O3          32.0780     2.9050   -22.2120 os         1 TU9      -0.359100
     36 H1          27.3400    -1.6080   -28.3150 ha         1 TU9       0.128000
     37 H2          29.9590    -1.0970   -29.3890 hc         1 TU9       0.059700
     38 H3          29.8430    -1.8710   -27.8240 hc         1 TU9       0.059700
     39 H4          36.0910     0.4890   -31.1270 ha         1 TU9       0.115500
     40 H5          32.5670    -1.5340   -32.4960 ha         1 TU9       0.115500
     41 H6          33.2200     3.9040   -24.4800 ha         1 TU9       0.122500
     42 H7          32.3800     3.4630   -26.7350 ha         1 TU9       0.125000
     43 H8          33.6020     2.7860   -20.0710 hc         1 TU9       0.062700
     44 H10         32.1730     6.4890   -18.8580 h1         1 TU9       0.036200
     45 H11         34.2950     7.7910   -18.8020 h1         1 TU9       0.028700
     46 H12         35.3420     6.4960   -18.2160 h1         1 TU9       0.028700
     47 H13         27.9270     3.1460   -27.1490 ha         1 TU9       0.121000
     48 H14         34.7120     1.8230   -29.5650 ha         1 TU9       0.121500
     49 H15         35.0200    -1.1950   -32.5960 ha         1 TU9       0.114000
     50 H16         31.2030    -0.2330   -30.9080 ha         1 TU9       0.121500
     51 H17         29.2140     1.0850   -25.1270 ha         1 TU9       0.125000
     52 H18         30.0490     1.5200   -22.8480 ha         1 TU9       0.122500
     53 H19         25.6550     2.1890   -27.2810 ha         1 TU9       0.116000
     54 H20         34.1050     3.2660   -22.4280 h1         1 TU9       0.042700
     55 H21         33.0790     4.7160   -22.3630 h1         1 TU9       0.042700
     56 H22         31.4970     4.8150   -20.4480 hc         1 TU9       0.055700
     57 H23         31.7120     3.7690   -19.0510 hc         1 TU9       0.055700
     58 H24         35.1700     4.2980   -19.2430 h1         1 TU9       0.039200
     59 H25         35.3240     4.8010   -20.9340 h1         1 TU9       0.039200
     60 H26         36.6060     8.1970   -19.5340 hc         1 TU9       0.037700
     61 H27         36.6860     6.6280   -20.3340 hc         1 TU9       0.037700
     62 H28         35.5940     7.8760   -20.9510 hc         1 TU9       0.037700
     63 H29         32.3930    -2.1240   -28.1900 hc         1 TU9       0.082450
     64 H30         33.4390    -0.6410   -28.1090 hc         1 TU9       0.082450
     65 H31         31.2970    -1.4010   -25.9860 hc         1 TU9       0.082450
     66 H32         32.3580     0.0820   -25.9940 hc         1 TU9       0.082450
     67 H33         30.2780     2.9080   -28.0650 h1         1 TU9       0.095700
     68 H35         24.4450     0.2790   -27.6800 ho         1 TU9       0.463000
     69 H9          33.1540     5.3230   -17.9500 h1         1 TU9       0.036200
     70 C28         34.9010     6.9410   -19.1270 c3         1 TU9       0.169800
@<TRIPOS>BOND
     1     1     6 1   
     2     1     7 1   
     3     1    31 1   
     4     2     3 ar  
     5     2    28 ar  
     6     2    36 1   
     7     3     4 ar  
     8     3     5 1   
     9     4    16 ar  
    10     4    31 1   
    11     5     6 1   
    12     5    37 1   
    13     5    38 1   
    14     6    29 1   
    15     6    30 1   
    16     7    17 1   
    17     7    34 2   
    18     8    18 ar  
    19     8    19 ar  
    20     8    39 1   
    21     9    19 ar  
    22     9    20 ar  
    23     9    40 1   
    24    10    13 ar  
    25    10    21 ar  
    26    10    31 1   
    27    11    12 ar  
    28    11    22 ar  
    29    11    35 1   
    30    12    13 ar  
    31    12    41 1   
    32    13    42 1   
    33    14    24 1   
    34    14    25 1   
    35    14    26 1   
    36    14    43 1   
    37    15    25 1   
    38    15    32 1   
    39    15    44 1   
    40    15    69 1   
    41    16    23 ar  
    42    16    47 1   
    43    17    18 ar  
    44    17    20 ar  
    45    18    48 1   
    46    19    49 1   
    47    20    50 1   
    48    21    22 ar  
    49    21    51 1   
    50    22    52 1   
    51    23    28 ar  
    52    23    53 1   
    53    24    35 1   
    54    24    54 1   
    55    24    55 1   
    56    25    56 1   
    57    25    57 1   
    58    26    32 1   
    59    26    58 1   
    60    26    59 1   
    61    27    60 1   
    62    27    61 1   
    63    27    62 1   
    64    27    70 1   
    65    28    33 1   
    66    29    30 1   
    67    29    63 1   
    68    29    64 1   
    69    30    65 1   
    70    30    66 1   
    71    31    67 1   
    72    32    70 1   
    73    33    68 1   
    74    45    70 1   
    75    46    70 1   
@<TRIPOS>SUBSTRUCTURE
     1 TU9         1 TEMP              0 ****  ****    0 ROOT
