@<TRIPOS>MOLECULE
TUA
   54    57     1     0     0
SMALL
abcg2


@<TRIPOS>ATOM
      1 C01          0.9730   -29.5560    11.5680 c2         1 TUA      -0.162200
      2 C02          0.3000   -29.2050    12.6640 ce         1 TUA      -0.285200
      3 C03          0.3400   -27.8330    13.1770 c          1 TUA       0.565500
      4 C04          1.1370   -26.8840    12.4080 ce         1 TUA      -0.302200
      5 C05          1.8110   -27.2270    11.3010 c2         1 TUA      -0.041400
      6 C06          2.6560   -26.2430    10.5620 c6         1 TUA      -0.049200
      7 C07          4.1060   -26.7200    10.5440 c6         1 TUA      -0.073400
      8 C08          4.2560   -28.1540    10.0440 c6         1 TUA      -0.038700
      9 C09          3.3180   -29.1060    10.8130 c6         1 TUA      -0.065700
     10 C10          1.8210   -28.6320    10.7540 c6         1 TUA       0.006400
     11 C11          3.5390   -30.5990    10.4920 c6         1 TUA       0.182300
     12 C12          5.0180   -30.9870    10.5990 c6         1 TUA      -0.063400
     13 C13          5.9440   -30.0680     9.8110 c5         1 TUA      -0.055000
     14 C14          5.6890   -28.6240    10.2630 c5         1 TUA      -0.069700
     15 C15          6.8420   -27.8340     9.6470 c5         1 TUA      -0.073400
     16 C16          8.0250   -28.8330     9.6340 c5         1 TUA      -0.104400
     17 C17          7.4740   -30.1800    10.1550 c5         1 TUA       0.087000
     18 C18          5.7500   -30.2270     8.2970 c3         1 TUA      -0.083100
     19 C19          1.2110   -28.5860     9.3310 c3         1 TUA      -0.072100
     20 C20          8.1180   -31.3980     9.5160 c          1 TUA       0.561100
     21 C21          8.1990   -32.6730    10.3360 c3         1 TUA       0.069600
     22 O01         -0.2670   -27.5060    14.1880 o          1 TUA      -0.523100
     23 O02          3.0560   -30.9850     9.2210 oh         1 TUA      -0.656000
     24 O03          7.7060   -30.3470    11.5370 oh         1 TUA      -0.662000
     25 O04          8.5670   -31.3870     8.3930 o          1 TUA      -0.523100
     26 O05          8.5020   -33.7890     9.5530 oh         1 TUA      -0.651000
     27 H011         0.8850   -30.5780    11.2160 ha         1 TUA       0.171000
     28 H021        -0.3090   -29.9250    13.1980 ha         1 TUA       0.201000
     29 H041         1.1680   -25.8610    12.7680 ha         1 TUA       0.199000
     30 H072         2.5880   -25.2600    11.0320 hc         1 TUA       0.056700
     31 H071         2.2910   -26.1270     9.5370 hc         1 TUA       0.056700
     32 H082         4.5040   -26.6530    11.5630 hc         1 TUA       0.046200
     33 H081         4.7020   -26.0440     9.9280 hc         1 TUA       0.046200
     34 H211         4.0170   -28.1750     8.9750 hc         1 TUA       0.067700
     35 H221         3.5990   -29.0150    11.8730 hc         1 TUA       0.053700
     36 H231         3.0260   -31.1780    11.2690 h1         1 TUA       0.029700
     37 H092         5.1170   -32.0310    10.2870 hc         1 TUA       0.057200
     38 H091         5.2870   -30.9480    11.6580 hc         1 TUA       0.057200
     39 H111         5.8160   -28.5940    11.3570 hc         1 TUA       0.033700
     40 H121         7.0790   -26.9350    10.2160 hc         1 TUA       0.049700
     41 H122         6.5940   -27.5090     8.6340 hc         1 TUA       0.049700
     42 H132         8.4280   -28.9420     8.6290 hc         1 TUA       0.066200
     43 H131         8.8540   -28.5070    10.2650 hc         1 TUA       0.066200
     44 H203         4.7840   -29.8460     7.9780 hc         1 TUA       0.048033
     45 H202         6.5090   -29.7030     7.7190 hc         1 TUA       0.048033
     46 H201         5.7860   -31.2770     8.0050 hc         1 TUA       0.048033
     47 H263         0.3200   -27.9570     9.3380 hc         1 TUA       0.043033
     48 H261         1.9020   -28.1770     8.5970 hc         1 TUA       0.043033
     49 H262         0.9010   -29.5660     8.9790 hc         1 TUA       0.043033
     50 H152         7.2520   -32.8550    10.8490 h1         1 TUA       0.072700
     51 H151         8.9460   -32.5000    11.1250 h1         1 TUA       0.072700
     52 H241         2.1260   -31.2120     9.2940 ho         1 TUA       0.440000
     53 H191         7.4140   -29.5640    12.0150 ho         1 TUA       0.456000
     54 H171         9.1020   -33.5120     8.8510 ho         1 TUA       0.460000
@<TRIPOS>BOND
     1     1     2 2   
     2     1    10 1   
     3     1    27 1   
     4     2     3 1   
     5     2    28 1   
     6     3     4 1   
     7     3    22 2   
     8     4     5 2   
     9     4    29 1   
    10     5     6 1   
    11     5    10 1   
    12     6     7 1   
    13     6    30 1   
    14     6    31 1   
    15     7     8 1   
    16     7    32 1   
    17     7    33 1   
    18     8     9 1   
    19     8    14 1   
    20     8    34 1   
    21     9    10 1   
    22     9    11 1   
    23     9    35 1   
    24    10    19 1   
    25    11    12 1   
    26    11    23 1   
    27    11    36 1   
    28    12    13 1   
    29    12    37 1   
    30    12    38 1   
    31    13    14 1   
    32    13    17 1   
    33    13    18 1   
    34    14    15 1   
    35    14    39 1   
    36    15    16 1   
    37    15    40 1   
    38    15    41 1   
    39    16    17 1   
    40    16    42 1   
    41    16    43 1   
    42    17    20 1   
    43    17    24 1   
    44    18    44 1   
    45    18    45 1   
    46    18    46 1   
    47    19    47 1   
    48    19    48 1   
    49    19    49 1   
    50    20    21 1   
    51    20    25 2   
    52    21    26 1   
    53    21    50 1   
    54    21    51 1   
    55    23    52 1   
    56    24    53 1   
    57    26    54 1   
@<TRIPOS>SUBSTRUCTURE
     1 TUA         1 TEMP              0 ****  ****    0 ROOT
