@<TRIPOS>MOLECULE
TUA
   54    57     1     0     0
SMALL
No Charge or Current Charge


@<TRIPOS>ATOM
      1 C01          0.9460   -29.5930    11.7230 c2         1 TUA      -0.162200
      2 C02          0.2190   -29.1420    12.7690 ce         1 TUA      -0.285200
      3 C03          0.1720   -27.7170    13.1710 c          1 TUA       0.565500
      4 C04          1.0000   -26.8070    12.3500 ce         1 TUA      -0.302200
      5 C05          1.7390   -27.2200    11.2940 c2         1 TUA      -0.041400
      6 C06          2.6170   -26.2490    10.5170 c6         1 TUA      -0.049200
      7 C07          4.0880   -26.7010    10.5680 c6         1 TUA      -0.073400
      8 C08          4.2710   -28.1670    10.0760 c6         1 TUA      -0.038700
      9 C09          3.3110   -29.1500    10.8480 c6         1 TUA      -0.065700
     10 C10          1.7940   -28.6870    10.8200 c6         1 TUA       0.006400
     11 C11          3.5770   -30.6640    10.4830 c6         1 TUA       0.182300
     12 C12          5.0880   -31.0480    10.5970 c6         1 TUA      -0.063400
     13 C13          6.0580   -30.0790     9.8290 c5         1 TUA      -0.055000
     14 C14          5.7490   -28.6190    10.2920 c5         1 TUA      -0.069700
     15 C15          6.8750   -27.8090     9.5950 c5         1 TUA      -0.073400
     16 C16          8.1290   -28.7420     9.7210 c5         1 TUA      -0.104400
     17 C17          7.5910   -30.1350    10.2540 c5         1 TUA       0.087000
     18 C18          5.8900   -30.3170     8.2810 c3         1 TUA      -0.083100
     19 C19          1.1110   -28.7260     9.4120 c3         1 TUA      -0.072100
     20 C20          8.3430   -31.3490     9.5550 c          1 TUA       0.561100
     21 C21          8.1300   -32.7550    10.1850 c3         1 TUA       0.069600
     22 O01         -0.4950   -27.3240    14.1170 o          1 TUA      -0.523100
     23 O02          3.0720   -31.0260     9.1960 oh         1 TUA      -0.656000
     24 O03          7.7830   -30.2100    11.6820 oh         1 TUA      -0.662000
     25 O04          9.1040   -31.2400     8.5930 o          1 TUA      -0.523100
     26 O05          7.9520   -33.8070     9.1980 oh         1 TUA      -0.651000
     27 H011         0.9210   -30.6550    11.4700 ha         1 TUA       0.171000
     28 H021        -0.3820   -29.8200    13.3730 ha         1 TUA       0.201000
     29 H041         0.9910   -25.7650    12.6620 ha         1 TUA       0.199000
     30 H072         2.5340   -25.2350    10.9330 hc         1 TUA       0.056700
     31 H071         2.2800   -26.1740     9.4750 hc         1 TUA       0.056700
     32 H082         4.4530   -26.6050    11.6000 hc         1 TUA       0.046200
     33 H081         4.6950   -26.0170     9.9590 hc         1 TUA       0.046200
     34 H211         4.0390   -28.1960     9.0040 hc         1 TUA       0.067700
     35 H221         3.6020   -29.0700    11.9050 hc         1 TUA       0.053700
     36 H231         3.0560   -31.2750    11.2320 h1         1 TUA       0.029700
     37 H092         5.2210   -32.0810    10.2530 hc         1 TUA       0.057200
     38 H091         5.3420   -31.0570    11.6650 hc         1 TUA       0.057200
     39 H111         5.8780   -28.5280    11.3780 hc         1 TUA       0.033700
     40 H121         7.0420   -26.8390    10.0780 hc         1 TUA       0.049700
     41 H122         6.6340   -27.5990     8.5470 hc         1 TUA       0.049700
     42 H132         8.6230   -28.8130     8.7460 hc         1 TUA       0.066200
     43 H131         8.8790   -28.3170    10.3980 hc         1 TUA       0.066200
     44 H203         4.9430   -29.9330     7.8910 hc         1 TUA       0.048033
     45 H202         6.6740   -29.8340     7.6880 hc         1 TUA       0.048033
     46 H201         5.9290   -31.3850     8.0370 hc         1 TUA       0.048033
     47 H263         0.1790   -28.1480     9.4220 hc         1 TUA       0.043033
     48 H261         1.7430   -28.3040     8.6240 hc         1 TUA       0.043033
     49 H262         0.8290   -29.7400     9.1090 hc         1 TUA       0.043033
     50 H152         7.2680   -32.7110    10.8600 h1         1 TUA       0.072700
     51 H151         9.0080   -32.9550    10.8130 h1         1 TUA       0.072700
     52 H241         2.2120   -30.5710     9.1020 ho         1 TUA       0.440000
     53 H191         7.3860   -29.3980    12.0650 ho         1 TUA       0.456000
     54 H171         8.6870   -33.7240     8.5460 ho         1 TUA       0.460000
@<TRIPOS>BOND
     1     1     2 2   
     2     1    10 1   
     3     1    27 1   
     4     2     3 1   
     5     2    28 1   
     6     3     4 1   
     7     3    22 2   
     8     4     5 2   
     9     4    29 1   
    10     5     6 1   
    11     5    10 1   
    12     6     7 1   
    13     6    30 1   
    14     6    31 1   
    15     7     8 1   
    16     7    32 1   
    17     7    33 1   
    18     8     9 1   
    19     8    14 1   
    20     8    34 1   
    21     9    10 1   
    22     9    11 1   
    23     9    35 1   
    24    10    19 1   
    25    11    12 1   
    26    11    23 1   
    27    11    36 1   
    28    12    13 1   
    29    12    37 1   
    30    12    38 1   
    31    13    14 1   
    32    13    17 1   
    33    13    18 1   
    34    14    15 1   
    35    14    39 1   
    36    15    16 1   
    37    15    40 1   
    38    15    41 1   
    39    16    17 1   
    40    16    42 1   
    41    16    43 1   
    42    17    20 1   
    43    17    24 1   
    44    18    44 1   
    45    18    45 1   
    46    18    46 1   
    47    19    47 1   
    48    19    48 1   
    49    19    49 1   
    50    20    21 1   
    51    20    25 2   
    52    21    26 1   
    53    21    50 1   
    54    21    51 1   
    55    23    52 1   
    56    24    53 1   
    57    26    54 1   
@<TRIPOS>SUBSTRUCTURE
     1 TUA         1 TEMP              0 ****  ****    0 ROOT
