@<TRIPOS>MOLECULE
TUB
   86    92     1     0     0
SMALL
No Charge or Current Charge


@<TRIPOS>ATOM
      1 C1           3.9730    -1.5030    -0.6130 ca         1 TUB       0.127100
      2 C2           3.2750    -1.1130     0.5560 ca         1 TUB       0.057100
      3 C3           3.3670     0.2090     1.0180 ca         1 TUB      -0.070000
      4 C4           4.1500     1.1600     0.3300 ca         1 TUB      -0.133300
      5 C5           4.8850     0.7630    -0.8070 ca         1 TUB      -0.028300
      6 C6           4.7830    -0.5570    -1.2810 ca         1 TUB      -0.191000
      7 C7           4.2230     2.6110     0.8320 c6         1 TUB       0.235800
      8 N8           5.5450     3.2330     0.5290 n3         1 TUB      -0.709600
      9 C9           5.8560     3.1740    -0.9290 c6         1 TUB       0.163800
     10 C10          5.8690     1.7260    -1.4870 c6         1 TUB      -0.072100
     11 C11         -3.7990     2.3920     0.1770 ca         1 TUB       0.105100
     12 C12         -4.9610     2.3570    -0.6190 ca         1 TUB       0.102100
     13 C13         -5.5190     1.1140    -0.9910 ca         1 TUB      -0.161000
     14 C14         -4.9070    -0.0910    -0.5990 ca         1 TUB      -0.071300
     15 C15         -3.7110    -0.0540     0.1500 ca         1 TUB      -0.162300
     16 C16         -3.1750     1.1820     0.5620 ca         1 TUB       0.128100
     17 C17         -5.6210    -1.4160    -0.9120 c6         1 TUB      -0.047100
     18 C18         -4.9480    -2.6870    -0.3320 c6         1 TUB       0.102600
     19 C20         -2.9920    -1.3500     0.5310 c6         1 TUB       0.192600
     20 O21          2.5360    -2.0190     1.2910 os         1 TUB      -0.229200
     21 C22          1.4490    -2.6690     0.7490 ca         1 TUB       0.096100
     22 C23          3.0280     3.4500     0.2700 c3         1 TUB      -0.027100
     23 C24          1.6480     2.8710     0.5680 ca         1 TUB      -0.075300
     24 C25          0.3170    -1.9240     0.3730 ca         1 TUB      -0.091000
     25 C26         -0.7950    -2.5630    -0.2130 ca         1 TUB      -0.157300
     26 C27         -0.7420    -3.9490    -0.4580 ca         1 TUB      -0.081000
     27 C28          0.3680    -4.7040    -0.0420 ca         1 TUB      -0.207000
     28 C29          1.4600    -4.0730     0.5780 ca         1 TUB       0.175100
     29 C30          1.1910     2.7630     1.8950 ca         1 TUB      -0.079000
     30 C31         -0.0660     2.1970     2.1640 ca         1 TUB      -0.137500
     31 C32         -0.4400     1.8780    -0.2200 ca         1 TUB      -0.137500
     32 C33          0.8250     2.4280    -0.4870 ca         1 TUB      -0.079000
     33 O34         -2.0920     1.1800     1.4160 os         1 TUB      -0.259200
     34 C35         -2.0100    -1.7400    -0.6300 c3         1 TUB      -0.029100
     35 O36         -5.5390     3.5640    -0.9750 os         1 TUB      -0.350100
     36 O37          3.8780    -2.8120    -1.0530 os         1 TUB      -0.335100
     37 O38          2.5230    -4.8290     0.9910 oh         1 TUB      -0.484100
     38 C39         -0.8840     1.7600     1.1100 ca         1 TUB       0.105100
     39 C42          6.6400     2.6980     1.3750 c3         1 TUB       0.149100
     40 O43         -3.3120     3.6100     0.5840 oh         1 TUB      -0.500100
     41 C45         -6.7300     3.6410    -1.7810 c3         1 TUB       0.149900
     42 C46          4.5430    -3.2840    -2.2380 c3         1 TUB       0.146900
     43 H3           2.8270     0.4930     1.9170 ha         1 TUB       0.129000
     44 H6           5.3620    -0.8360    -2.1560 ha         1 TUB       0.122000
     45 H7           4.0900     2.5900     1.9250 h1         1 TUB       0.064700
     46 H9           5.1260     3.7630    -1.5010 h1         1 TUB       0.057200
     47 H9A          6.8300     3.6430    -1.1340 h1         1 TUB       0.057200
     48 H10          6.8810     1.3180    -1.3690 hc         1 TUB       0.058700
     49 H10A         5.6810     1.7530    -2.5680 hc         1 TUB       0.058700
     50 H13         -6.4390     1.0660    -1.5660 ha         1 TUB       0.135000
     51 H17         -6.6390    -1.3590    -0.5030 hc         1 TUB       0.082700
     52 H18         -4.3020    -3.1470    -1.0840 hx         1 TUB       0.089700
     53 H20         -2.3880    -1.1840     1.4290 hx         1 TUB       0.116700
     54 H23          3.0840     4.4650     0.6810 hc         1 TUB       0.063200
     55 H23A         3.1260     3.5680    -0.8130 hc         1 TUB       0.063200
     56 H25          0.3100    -0.8490     0.5330 ha         1 TUB       0.138000
     57 H27         -1.5670    -4.4490    -0.9610 ha         1 TUB       0.099000
     58 H28          0.3750    -5.7780    -0.2110 ha         1 TUB       0.125000
     59 H30          1.8140     3.1050     2.7200 ha         1 TUB       0.123500
     60 H31         -0.4090     2.0990     3.1900 ha         1 TUB       0.123000
     61 H32         -1.0600     1.5370    -1.0440 ha         1 TUB       0.123000
     62 H33          1.1660     2.5030    -1.5180 ha         1 TUB       0.123500
     63 H35         -2.5440    -2.2340    -1.4470 hc         1 TUB       0.072700
     64 H35A        -1.6320    -0.8170    -1.0850 hc         1 TUB       0.072700
     65 HO38         2.3470    -5.7630     0.7580 ho         1 TUB       0.467000
     66 H40         -2.6650    -3.5230     2.1410 hx         1 TUB       0.094367
     67 H40A        -2.9100    -4.2080     0.5100 hx         1 TUB       0.094367
     68 H40B        -4.1670    -4.4080     1.7480 hx         1 TUB       0.094367
     69 H41         -5.4070    -0.9970     1.8020 hx         1 TUB       0.094367
     70 H41A        -4.2610    -1.7430     2.9470 hx         1 TUB       0.094367
     71 H41B        -5.6550    -2.6800     2.3380 hx         1 TUB       0.094367
     72 H42          6.7940     1.6240     1.2030 h1         1 TUB       0.037367
     73 H42A         7.5830     3.2180     1.1610 h1         1 TUB       0.037367
     74 H42B         6.4110     2.8420     2.4390 h1         1 TUB       0.037367
     75 HO43        -3.9080     4.2950     0.2060 ho         1 TUB       0.497000
     76 H45         -6.5710     3.1690    -2.7590 h1         1 TUB       0.055033
     77 H45A        -7.5720     3.1450    -1.2830 h1         1 TUB       0.055033
     78 H45B        -7.0080     4.6890    -1.9520 h1         1 TUB       0.055033
     79 H46          4.2100    -2.7230    -3.1210 h1         1 TUB       0.043700
     80 H46A         5.6310    -3.1820    -2.1430 h1         1 TUB       0.043700
     81 H46B         4.3150    -4.3440    -2.4040 h1         1 TUB       0.043700
     82 N19         -4.0540    -2.4270     0.9070 n4         1 TUB      -0.495000
     83 H401        -5.7420    -1.5340    -1.9970 hc         1 TUB       0.082700
     84 H411        -5.6970    -3.4320    -0.0470 hx         1 TUB       0.089700
     85 C40         -3.3980    -3.7360     1.3600 c3         1 TUB       0.078400
     86 C41         -4.9070    -1.9250     2.0860 c3         1 TUB       0.078400
@<TRIPOS>BOND
     1     1     2 ar  
     2     1     6 ar  
     3     1    36 1   
     4     2     3 ar  
     5     2    20 1   
     6     3     4 ar  
     7     3    43 1   
     8     4     5 ar  
     9     4     7 1   
    10     5     6 ar  
    11     5    10 1   
    12     6    44 1   
    13     7     8 1   
    14     7    22 1   
    15     7    45 1   
    16     8     9 1   
    17     8    39 1   
    18     9    10 1   
    19     9    46 1   
    20     9    47 1   
    21    10    48 1   
    22    10    49 1   
    23    11    12 ar  
    24    11    16 ar  
    25    11    40 1   
    26    12    13 ar  
    27    12    35 1   
    28    13    14 ar  
    29    13    50 1   
    30    14    15 ar  
    31    14    17 1   
    32    15    16 ar  
    33    15    19 1   
    34    16    33 1   
    35    17    18 1   
    36    17    51 1   
    37    17    83 1   
    38    18    52 1   
    39    18    82 1   
    40    18    84 1   
    41    19    34 1   
    42    19    53 1   
    43    19    82 1   
    44    20    21 1   
    45    21    24 ar  
    46    21    28 ar  
    47    22    23 1   
    48    22    54 1   
    49    22    55 1   
    50    23    29 ar  
    51    23    32 ar  
    52    24    25 ar  
    53    24    56 1   
    54    25    26 ar  
    55    25    34 1   
    56    26    27 ar  
    57    26    57 1   
    58    27    28 ar  
    59    27    58 1   
    60    28    37 1   
    61    29    30 ar  
    62    29    59 1   
    63    30    38 ar  
    64    30    60 1   
    65    31    32 ar  
    66    31    38 ar  
    67    31    61 1   
    68    32    62 1   
    69    33    38 1   
    70    34    63 1   
    71    34    64 1   
    72    35    41 1   
    73    36    42 1   
    74    37    65 1   
    75    39    72 1   
    76    39    73 1   
    77    39    74 1   
    78    40    75 1   
    79    41    76 1   
    80    41    77 1   
    81    41    78 1   
    82    42    79 1   
    83    42    80 1   
    84    42    81 1   
    85    66    85 1   
    86    67    85 1   
    87    68    85 1   
    88    69    86 1   
    89    70    86 1   
    90    71    86 1   
    91    82    85 1   
    92    82    86 1   
@<TRIPOS>SUBSTRUCTURE
     1 TUB         1 TEMP              0 ****  ****    0 ROOT
