@<TRIPOS>MOLECULE
TUB
   86    92     1     0     0
SMALL
bcc


@<TRIPOS>ATOM
      1 C1           3.8400    -1.4570    -0.5970 ca         1 TUB       0.127100
      2 C2           3.1940    -1.0540     0.5840 ca         1 TUB       0.057100
      3 C3           3.3080     0.2490     1.0150 ca         1 TUB      -0.088000
      4 C4           4.0830     1.1850     0.3260 ca         1 TUB      -0.133300
      5 C5           4.7740     0.7750    -0.8080 ca         1 TUB      -0.028300
      6 C6           4.6270    -0.5350    -1.2690 ca         1 TUB      -0.209000
      7 C7           4.1710     2.6180     0.8070 c6         1 TUB       0.235800
      8 N8           5.4120     3.2690     0.4100 n3         1 TUB      -0.709600
      9 C9           5.6560     3.1330    -1.0180 c6         1 TUB       0.163800
     10 C10          5.7610     1.6850    -1.4910 c6         1 TUB      -0.072100
     11 C11         -3.5970     2.2980     0.1680 ca         1 TUB       0.105100
     12 C12         -4.7390     2.3200    -0.6470 ca         1 TUB       0.102100
     13 C13         -5.3540     1.1350    -1.0050 ca         1 TUB      -0.179000
     14 C14         -4.8270    -0.0900    -0.6000 ca         1 TUB      -0.071300
     15 C15         -3.6580    -0.1280     0.1440 ca         1 TUB      -0.162300
     16 C16         -3.0650     1.0740     0.5420 ca         1 TUB       0.128100
     17 C17         -5.6330    -1.3350    -0.8510 c6         1 TUB      -0.047100
     18 C18         -4.9670    -2.6250    -0.4170 c6         1 TUB       0.130800
     19 C20         -3.0030    -1.4350     0.5120 c6         1 TUB       0.220800
     20 O21          2.5150    -1.9590     1.3630 os         1 TUB      -0.229200
     21 C22          1.4530    -2.6220     0.8040 ca         1 TUB       0.096100
     22 C23          2.9760     3.4780     0.3400 c3         1 TUB      -0.027100
     23 C24          1.6350     2.8650     0.6090 ca         1 TUB      -0.075300
     24 C25          0.3090    -1.9490     0.4180 ca         1 TUB      -0.109000
     25 C26         -0.7690    -2.6240    -0.1570 ca         1 TUB      -0.157300
     26 C27         -0.6370    -3.9910    -0.3640 ca         1 TUB      -0.099000
     27 C28          0.4890    -4.6800     0.0620 ca         1 TUB      -0.225000
     28 C29          1.5410    -4.0100     0.6700 ca         1 TUB       0.175100
     29 C30          1.1160     2.7890     1.8990 ca         1 TUB      -0.097000
     30 C31         -0.1060     2.1860     2.1490 ca         1 TUB      -0.155500
     31 C32         -0.3460     1.7230    -0.2010 ca         1 TUB      -0.155500
     32 C33          0.8850     2.3210    -0.4270 ca         1 TUB      -0.097000
     33 O34         -2.0110     1.0290     1.4080 os         1 TUB      -0.259200
     34 C35         -1.9940    -1.8570    -0.5890 c3         1 TUB      -0.029100
     35 O36         -5.1620     3.5540    -0.9730 os         1 TUB      -0.326900
     36 O37          3.6680    -2.7350    -0.9680 os         1 TUB      -0.311900
     37 O38          2.6450    -4.6220     1.1250 oh         1 TUB      -0.445100
     38 C39         -0.8340     1.6560     1.0940 ca         1 TUB       0.105100
     39 C42          6.5420     2.8350     1.2080 c3         1 TUB       0.149100
     40 O43         -3.0150     3.4250     0.6110 oh         1 TUB      -0.461100
     41 C45         -6.3690     3.6880    -1.7020 c3         1 TUB       0.126700
     42 C46          4.2690    -3.1810    -2.1650 c3         1 TUB       0.123700
     43 H3           2.8050     0.5330     1.9310 ha         1 TUB       0.147000
     44 H6           5.1680    -0.8280    -2.1610 ha         1 TUB       0.140000
     45 H7           4.1480     2.6140     1.9020 h1         1 TUB       0.064700
     46 H9           4.8560     3.6360    -1.5640 h1         1 TUB       0.057200
     47 H9A          6.5730     3.6710    -1.2670 h1         1 TUB       0.057200
     48 H10          6.7670     1.2990    -1.2940 hc         1 TUB       0.058700
     49 H10A         5.6360     1.6410    -2.5760 hc         1 TUB       0.058700
     50 H13         -6.2680     1.1410    -1.5870 ha         1 TUB       0.153000
     51 H17         -6.5910    -1.2260    -0.3370 hc         1 TUB       0.082700
     52 H18         -4.3430    -3.0390    -1.2050 hx         1 TUB       0.089700
     53 H20         -2.4720    -1.3450     1.4610 hx         1 TUB       0.116700
     54 H23          3.0610     4.4470     0.8360 hc         1 TUB       0.063200
     55 H23A         3.0610     3.6640    -0.7320 hc         1 TUB       0.063200
     56 H25          0.2710    -0.8730     0.5540 ha         1 TUB       0.156000
     57 H27         -1.4190    -4.5450    -0.8680 ha         1 TUB       0.117000
     58 H28          0.5530    -5.7510    -0.0990 ha         1 TUB       0.143000
     59 H30          1.6710     3.2090     2.7300 ha         1 TUB       0.141500
     60 H31         -0.4980     2.1340     3.1570 ha         1 TUB       0.141000
     61 H32         -0.9060     1.3140    -1.0340 ha         1 TUB       0.141000
     62 H33          1.2670     2.3610    -1.4400 ha         1 TUB       0.141500
     63 H35         -2.5060    -2.3790    -1.4000 hc         1 TUB       0.072700
     64 H35A        -1.6620    -0.9230    -1.0440 hc         1 TUB       0.072700
     65 HO38         2.5910    -5.5680     0.9540 ho         1 TUB       0.428000
     66 H40         -2.7570    -3.6440     1.9100 hx         1 TUB       0.094367
     67 H40A        -3.1130    -4.2580     0.2780 hx         1 TUB       0.094367
     68 H40B        -4.3260    -4.4000     1.5490 hx         1 TUB       0.094367
     69 H41         -5.3500    -1.0220     1.7670 hx         1 TUB       0.094367
     70 H41A        -4.2730    -1.9420     2.8310 hx         1 TUB       0.094367
     71 H41B        -5.7050    -2.7250     2.1230 hx         1 TUB       0.094367
     72 H42          6.7600     1.7600     1.1510 h1         1 TUB       0.037367
     73 H42A         7.4390     3.3710     0.8930 h1         1 TUB       0.037367
     74 H42B         6.3660     3.0770     2.2580 h1         1 TUB       0.037367
     75 HO43        -3.5190     4.1940     0.3140 ho         1 TUB       0.458000
     76 H45         -6.2970     3.2190    -2.6850 h1         1 TUB       0.055033
     77 H45A        -7.2150     3.2580    -1.1610 h1         1 TUB       0.055033
     78 H45B        -6.5350     4.7540    -1.8290 h1         1 TUB       0.055033
     79 H46          3.9160    -2.6170    -3.0330 h1         1 TUB       0.043700
     80 H46A         5.3590    -3.1180    -2.1260 h1         1 TUB       0.043700
     81 H46B         3.9830    -4.2230    -2.2830 h1         1 TUB       0.043700
     82 N19         -4.0980    -2.4540     0.7910 n4         1 TUB      -0.607800
     83 H401        -5.8740    -1.4330    -1.9110 hc         1 TUB       0.082700
     84 H411        -5.7120    -3.3800    -0.1700 hx         1 TUB       0.089700
     85 C40         -3.5260    -3.7780     1.1560 c3         1 TUB       0.106600
     86 C41         -4.9150    -1.9970     1.9560 c3         1 TUB       0.106600
@<TRIPOS>BOND
     1     1     2 ar  
     2     1     6 ar  
     3     1    36 1   
     4     2     3 ar  
     5     2    20 1   
     6     3     4 ar  
     7     3    43 1   
     8     4     5 ar  
     9     4     7 1   
    10     5     6 ar  
    11     5    10 1   
    12     6    44 1   
    13     7     8 1   
    14     7    22 1   
    15     7    45 1   
    16     8     9 1   
    17     8    39 1   
    18     9    10 1   
    19     9    46 1   
    20     9    47 1   
    21    10    48 1   
    22    10    49 1   
    23    11    12 ar  
    24    11    16 ar  
    25    11    40 1   
    26    12    13 ar  
    27    12    35 1   
    28    13    14 ar  
    29    13    50 1   
    30    14    15 ar  
    31    14    17 1   
    32    15    16 ar  
    33    15    19 1   
    34    16    33 1   
    35    17    18 1   
    36    17    51 1   
    37    17    83 1   
    38    18    52 1   
    39    18    82 1   
    40    18    84 1   
    41    19    34 1   
    42    19    53 1   
    43    19    82 1   
    44    20    21 1   
    45    21    24 ar  
    46    21    28 ar  
    47    22    23 1   
    48    22    54 1   
    49    22    55 1   
    50    23    29 ar  
    51    23    32 ar  
    52    24    25 ar  
    53    24    56 1   
    54    25    26 ar  
    55    25    34 1   
    56    26    27 ar  
    57    26    57 1   
    58    27    28 ar  
    59    27    58 1   
    60    28    37 1   
    61    29    30 ar  
    62    29    59 1   
    63    30    38 ar  
    64    30    60 1   
    65    31    32 ar  
    66    31    38 ar  
    67    31    61 1   
    68    32    62 1   
    69    33    38 1   
    70    34    63 1   
    71    34    64 1   
    72    35    41 1   
    73    36    42 1   
    74    37    65 1   
    75    39    72 1   
    76    39    73 1   
    77    39    74 1   
    78    40    75 1   
    79    41    76 1   
    80    41    77 1   
    81    41    78 1   
    82    42    79 1   
    83    42    80 1   
    84    42    81 1   
    85    66    85 1   
    86    67    85 1   
    87    68    85 1   
    88    69    86 1   
    89    70    86 1   
    90    71    86 1   
    91    82    85 1   
    92    82    86 1   
@<TRIPOS>SUBSTRUCTURE
     1 TUB         1 TEMP              0 ****  ****    0 ROOT
