@<TRIPOS>MOLECULE
TUC
   23    24     1     0     0
SMALL
No Charge or Current Charge


@<TRIPOS>ATOM
      1 C1           2.4640    -2.2520     0.0270 ca         1 TUC       0.271900
      2 C2           1.2220    -1.5930     0.0280 ca         1 TUC      -0.087000
      3 C3           1.1880    -0.1830     0.0200 ca         1 TUC      -0.053000
      4 C4           2.4220     0.5030     0.0100 ca         1 TUC      -0.056000
      5 C5           3.6190    -0.2450     0.0100 ca         1 TUC       0.324900
      6 C6          -0.0260     0.5410     0.0200 ca         1 TUC       0.193100
      7 C7           0.0110     1.9540     0.0110 ca         1 TUC      -0.247000
      8 C8           1.2420     2.6320     0.0020 ca         1 TUC      -0.053000
      9 C9           2.4450     1.9100     0.0020 ca         1 TUC      -0.174000
     10 C10         -2.5090     0.5030     0.0300 c3         1 TUC       0.000600
     11 C11         -3.7060    -0.4930     0.0410 c          1 TUC       0.729000
     12 N1           3.6500    -1.6000     0.0180 nb         1 TUC      -0.672000
     13 O1          -1.2210    -0.1580     0.0290 os         1 TUC      -0.289100
     14 O3          -3.4890    -1.6990     0.0480 o          1 TUC      -0.709500
     15 H1           2.5120    -3.3400     0.0330 h4         1 TUC       0.009100
     16 H2           0.3090    -2.1820     0.0350 ha         1 TUC       0.159000
     17 H5           4.5880     0.2550     0.0030 h4         1 TUC       0.001100
     18 H7          -0.9030     2.5410     0.0110 ha         1 TUC       0.124000
     19 H8           1.2630     3.7200    -0.0050 ha         1 TUC       0.096000
     20 H9           3.3930     2.4430    -0.0060 ha         1 TUC       0.101000
     21 H101        -2.6120     1.1330    -0.8620 h1         1 TUC       0.021700
     22 H102        -2.6040     1.1440     0.9160 h1         1 TUC       0.021700
     23 OXT         -4.8350    -0.0190     0.0430 o          1 TUC      -0.709500
@<TRIPOS>BOND
     1     1     2 ar  
     2     1    12 ar  
     3     1    15 1   
     4     2     3 ar  
     5     2    16 1   
     6     3     4 ar  
     7     3     6 ar  
     8     4     5 ar  
     9     4     9 ar  
    10     5    12 ar  
    11     5    17 1   
    12     6     7 ar  
    13     6    13 1   
    14     7     8 ar  
    15     7    18 1   
    16     8     9 ar  
    17     8    19 1   
    18     9    20 1   
    19    10    11 1   
    20    10    13 1   
    21    10    21 1   
    22    10    22 1   
    23    11    14 1   
    24    11    23 1   
@<TRIPOS>SUBSTRUCTURE
     1 TUC         1 TEMP              0 ****  ****    0 ROOT
