@<TRIPOS>MOLECULE
TUC
   23    24     1     0     0
SMALL
bcc


@<TRIPOS>ATOM
      1 C1           2.3900    -2.2250     0.0290 ca         1 TUC       0.337200
      2 C2           1.1790    -1.5890     0.0310 ca         1 TUC      -0.170300
      3 C3           1.1450    -0.1790     0.0220 ca         1 TUC      -0.053000
      4 C4           2.3790     0.5080     0.0090 ca         1 TUC      -0.121300
      5 C5           3.5580    -0.2730     0.0090 ca         1 TUC       0.390200
      6 C6          -0.0690     0.5720     0.0250 ca         1 TUC       0.193100
      7 C7          -0.0120     1.9460     0.0130 ca         1 TUC      -0.265000
      8 C8           1.2330     2.6110    -0.0010 ca         1 TUC      -0.071000
      9 C9           2.4110     1.9210    -0.0020 ca         1 TUC      -0.192000
     10 C10         -2.4380     0.4980     0.0380 c3         1 TUC      -0.022600
     11 C11         -3.5840    -0.5260     0.0330 c          1 TUC       0.939600
     12 N1           3.5750    -1.5780     0.0180 nb         1 TUC      -0.672000
     13 O1          -1.1850    -0.1600     0.0400 os         1 TUC      -0.265900
     14 O3          -3.2970    -1.7310     0.0330 o          1 TUC      -0.814800
     15 H1           2.4390    -3.3070     0.0350 h4         1 TUC       0.009100
     16 H2           0.2660    -2.1680     0.0400 ha         1 TUC       0.177000
     17 H5           4.5190     0.2360    -0.0010 h4         1 TUC       0.001100
     18 H7          -0.9130     2.5430     0.0150 ha         1 TUC       0.142000
     19 H8           1.2380     3.6930    -0.0110 ha         1 TUC       0.114000
     20 H9           3.3620     2.4380    -0.0130 ha         1 TUC       0.119000
     21 H101        -2.5290     1.1460    -0.8430 h1         1 TUC       0.021700
     22 H102        -2.5310     1.1430     0.9190 h1         1 TUC       0.021700
     23 OXT         -4.7160    -0.0030     0.0290 o          1 TUC      -0.814800
@<TRIPOS>BOND
     1     1     2 ar  
     2     1    12 ar  
     3     1    15 1   
     4     2     3 ar  
     5     2    16 1   
     6     3     4 ar  
     7     3     6 ar  
     8     4     5 ar  
     9     4     9 ar  
    10     5    12 ar  
    11     5    17 1   
    12     6     7 ar  
    13     6    13 1   
    14     7     8 ar  
    15     7    18 1   
    16     8     9 ar  
    17     8    19 1   
    18     9    20 1   
    19    10    11 1   
    20    10    13 1   
    21    10    21 1   
    22    10    22 1   
    23    11    14 1   
    24    11    23 1   
@<TRIPOS>SUBSTRUCTURE
     1 TUC         1 TEMP              0 ****  ****    0 ROOT
