@<TRIPOS>MOLECULE
TUD
   78    81     1     0     0
SMALL
No Charge or Current Charge


@<TRIPOS>ATOM
      1 C1          -6.7870     1.9560    -0.1460 c6         1 TUD      -0.065400
      2 C2          -6.7410     1.9850    -1.6930 c6         1 TUD      -0.111400
      3 C3          -7.4960     0.7680    -2.2720 c6         1 TUD       0.172300
      4 O3          -7.4290     0.7870    -3.7000 oh         1 TUD      -0.660000
      5 C4          -6.8880    -0.5430    -1.7280 c6         1 TUD      -0.075400
      6 C5          -6.8910    -0.5920    -0.1630 c6         1 TUD      -0.041700
      7 C6          -6.3140    -1.9390     0.3790 c6         1 TUD      -0.105400
      8 C7          -4.7690    -2.0730     0.2620 c6         1 TUD       0.177300
      9 O7          -4.3860    -2.3710    -1.0870 oh         1 TUD      -0.655000
     10 C8          -4.0300    -0.8160     0.8340 c6         1 TUD      -0.033700
     11 C9          -4.6040     0.5340     0.2600 c6         1 TUD      -0.044700
     12 C10         -6.1760     0.6540     0.4900 c6         1 TUD      -0.031000
     13 C11         -3.7930     1.7610     0.8060 c6         1 TUD      -0.071400
     14 C12         -2.2560     1.6210     0.6050 c6         1 TUD      -0.061400
     15 C13         -1.6870     0.3100     1.2380 c5         1 TUD      -0.041000
     16 C14         -2.4860    -0.8790     0.6100 c5         1 TUD      -0.061700
     17 C15         -1.7370    -2.1150     1.1630 c5         1 TUD      -0.070400
     18 C16         -0.2420    -1.6730     1.1020 c5         1 TUD      -0.077400
     19 C17         -0.2470    -0.1350     0.7500 c5         1 TUD      -0.052700
     20 C18         -1.7750     0.4300     2.8000 c3         1 TUD      -0.077100
     21 C19         -6.5310     0.7210     2.0210 c3         1 TUD      -0.086100
     22 C20          1.0290     0.6220     1.2800 c3         1 TUD      -0.050700
     23 C21          0.9800     2.1570     1.0620 c3         1 TUD      -0.087100
     24 C22          2.3380     0.0130     0.6780 c3         1 TUD      -0.070400
     25 C23          3.6680     0.5260     1.2950 c3         1 TUD      -0.161400
     26 O25          5.0850    -1.4420     1.2800 o          1 TUD      -0.623100
     27 C24          4.8620    -0.3230     0.8390 c          1 TUD       0.589100
     28 N26          5.6880     0.2790    -0.0810 ns         1 TUD      -0.491900
     29 C25          6.8850    -0.3380    -0.6410 c3         1 TUD       0.134000
     30 C26          7.5430     0.6140    -1.6460 c3         1 TUD      -0.377400
     31 S27          9.0310    -0.0990    -2.3700 s6         1 TUD       1.325600
     32 O28          8.5490    -1.3190    -3.0330 o          1 TUD      -0.693533
     33 O29          9.9060    -0.3340    -1.2130 o          1 TUD      -0.693533
     34 O30          9.5000     0.9500    -3.2870 o          1 TUD      -0.693533
     35 H11         -6.3080     2.8570     0.2550 hc         1 TUD       0.038200
     36 H12         -7.8400     2.0430     0.1570 hc         1 TUD       0.038200
     37 H21         -5.7020     2.0010    -2.0470 hc         1 TUD       0.047200
     38 H22         -7.2050     2.9140    -2.0510 hc         1 TUD       0.047200
     39 H3          -8.5470     0.8230    -1.9510 h1         1 TUD       0.020700
     40 HO3         -7.8550     1.6230    -3.9880 ho         1 TUD       0.438000
     41 H41         -5.8740    -0.6430    -2.1300 hc         1 TUD       0.059700
     42 H42         -7.4580    -1.3950    -2.1220 hc         1 TUD       0.059700
     43 H5          -7.9480    -0.5620     0.1370 hc         1 TUD       0.036700
     44 H61         -6.8000    -2.7840    -0.1290 hc         1 TUD       0.040700
     45 H62         -6.5930    -2.0520     1.4350 hc         1 TUD       0.040700
     46 H7          -4.4790    -2.9290     0.8890 h1         1 TUD       0.027700
     47 HO7         -4.8450    -3.2020    -1.3300 ho         1 TUD       0.436000
     48 H8          -4.1890    -0.8310     1.9180 hc         1 TUD       0.046700
     49 H9          -4.4190     0.5140    -0.8210 hc         1 TUD       0.062700
     50 H111        -4.1060     2.6770     0.2910 hc         1 TUD       0.033700
     51 H112        -4.0060     1.9280     1.8680 hc         1 TUD       0.033700
     52 H121        -2.0340     1.6460    -0.4710 hc         1 TUD       0.041700
     53 H122        -1.7810     2.5070     1.0370 hc         1 TUD       0.041700
     54 H14         -2.3720    -0.8570    -0.4820 hc         1 TUD       0.063700
     55 H151        -1.9220    -3.0120     0.5610 hc         1 TUD       0.038700
     56 H152        -2.0440    -2.3540     2.1880 hc         1 TUD       0.038700
     57 H161         0.3060    -2.2470     0.3450 hc         1 TUD       0.047200
     58 H162         0.2520    -1.8720     2.0600 hc         1 TUD       0.047200
     59 H17         -0.1990    -0.0270    -0.3410 hc         1 TUD       0.047700
     60 H181        -2.8060     0.4940     3.1610 hc         1 TUD       0.030033
     61 H182        -1.3130    -0.4180     3.3170 hc         1 TUD       0.030033
     62 H183        -1.2570     1.3290     3.1540 hc         1 TUD       0.030033
     63 H191        -7.6170     0.7190     2.1730 hc         1 TUD       0.031367
     64 H192        -6.1370    -0.1200     2.5990 hc         1 TUD       0.031367
     65 H193        -6.1560     1.6380     2.4880 hc         1 TUD       0.031367
     66 H20          1.0840     0.4650     2.3650 hc         1 TUD       0.044700
     67 H211         0.7280     2.4000     0.0230 hc         1 TUD       0.030367
     68 H212         0.2450     2.6180     1.7270 hc         1 TUD       0.030367
     69 H213         1.9320     2.6390     1.3030 hc         1 TUD       0.030367
     70 H221         2.3220    -1.0740     0.8130 hc         1 TUD       0.052700
     71 H222         2.3520     0.1860    -0.4050 hc         1 TUD       0.052700
     72 H231         3.8290     1.5650     0.9890 hc         1 TUD       0.049200
     73 H232         3.5930     0.4620     2.3860 hc         1 TUD       0.049200
     74 H26          5.4360     1.2100    -0.3880 hn         1 TUD       0.301500
     75 H251         7.5810    -0.5700     0.1780 h1         1 TUD       0.066200
     76 H252         6.6020    -1.2790    -1.1340 h1         1 TUD       0.066200
     77 H261         6.8640     0.8330    -2.4760 h1         1 TUD       0.067200
     78 H262         7.8460     1.5460    -1.1580 h1         1 TUD       0.067200
@<TRIPOS>BOND
     1     1     2 1   
     2     1    12 1   
     3     1    35 1   
     4     1    36 1   
     5     2     3 1   
     6     2    37 1   
     7     2    38 1   
     8     3     4 1   
     9     3     5 1   
    10     3    39 1   
    11     4    40 1   
    12     5     6 1   
    13     5    41 1   
    14     5    42 1   
    15     6     7 1   
    16     6    12 1   
    17     6    43 1   
    18     7     8 1   
    19     7    44 1   
    20     7    45 1   
    21     8     9 1   
    22     8    10 1   
    23     8    46 1   
    24     9    47 1   
    25    10    11 1   
    26    10    16 1   
    27    10    48 1   
    28    11    12 1   
    29    11    13 1   
    30    11    49 1   
    31    12    21 1   
    32    13    14 1   
    33    13    50 1   
    34    13    51 1   
    35    14    15 1   
    36    14    52 1   
    37    14    53 1   
    38    15    16 1   
    39    15    19 1   
    40    15    20 1   
    41    16    17 1   
    42    16    54 1   
    43    17    18 1   
    44    17    55 1   
    45    17    56 1   
    46    18    19 1   
    47    18    57 1   
    48    18    58 1   
    49    19    22 1   
    50    19    59 1   
    51    20    60 1   
    52    20    61 1   
    53    20    62 1   
    54    21    63 1   
    55    21    64 1   
    56    21    65 1   
    57    22    23 1   
    58    22    24 1   
    59    22    66 1   
    60    23    67 1   
    61    23    68 1   
    62    23    69 1   
    63    24    25 1   
    64    24    70 1   
    65    24    71 1   
    66    25    27 1   
    67    25    72 1   
    68    25    73 1   
    69    26    27 2   
    70    27    28 1   
    71    28    29 1   
    72    28    74 1   
    73    29    30 1   
    74    29    75 1   
    75    29    76 1   
    76    30    31 1   
    77    30    77 1   
    78    30    78 1   
    79    31    32 1   
    80    31    33 1   
    81    31    34 1   
@<TRIPOS>SUBSTRUCTURE
     1 TUD         1 TEMP              0 ****  ****    0 ROOT
