@<TRIPOS>MOLECULE
TUD
   78    81     1     0     0
SMALL
abcg2


@<TRIPOS>ATOM
      1 C1          -6.6940     1.9670    -0.1500 c6         1 TUD      -0.065400
      2 C2          -6.8110     1.8270    -1.6600 c6         1 TUD      -0.111400
      3 C3          -7.6830     0.6270    -1.9920 c6         1 TUD       0.172300
      4 O3          -7.8170     0.4170    -3.3860 oh         1 TUD      -0.660000
      5 C4          -7.0830    -0.6270    -1.3850 c6         1 TUD      -0.075400
      6 C5          -6.9080    -0.5100     0.1360 c6         1 TUD      -0.041700
      7 C6          -6.3300    -1.7870     0.7510 c6         1 TUD      -0.105400
      8 C7          -4.8420    -2.0050     0.4910 c6         1 TUD       0.177300
      9 O7          -4.5640    -2.3540    -0.8530 oh         1 TUD      -0.655000
     10 C8          -4.0350    -0.7610     0.8560 c6         1 TUD      -0.033700
     11 C9          -4.6030     0.5250     0.2200 c6         1 TUD      -0.044700
     12 C10         -6.1010     0.7380     0.5640 c6         1 TUD      -0.031000
     13 C11         -3.7290     1.7370     0.5680 c6         1 TUD      -0.071400
     14 C12         -2.2390     1.5370     0.2880 c6         1 TUD      -0.061400
     15 C13         -1.6920     0.2850     0.9740 c5         1 TUD      -0.041000
     16 C14         -2.5620    -0.8930     0.4940 c5         1 TUD      -0.061700
     17 C15         -1.8040    -2.1280     0.9650 c5         1 TUD      -0.070400
     18 C16         -0.3240    -1.7230     0.8140 c5         1 TUD      -0.077400
     19 C17         -0.2980    -0.2010     0.5060 c5         1 TUD      -0.052700
     20 C18         -1.7060     0.4390     2.4980 c3         1 TUD      -0.077100
     21 C19         -6.2980     0.9820     2.0670 c3         1 TUD      -0.086100
     22 C20          0.9610     0.4830     1.0630 c3         1 TUD      -0.050700
     23 C21          0.9630     1.9960     0.8590 c3         1 TUD      -0.087100
     24 C22          2.2010    -0.1530     0.4200 c3         1 TUD      -0.070400
     25 C23          3.5310     0.3710     0.9600 c3         1 TUD      -0.161400
     26 O25          4.7910    -1.6200     0.5090 o          1 TUD      -0.623100
     27 C24          4.7050    -0.4030     0.3990 c          1 TUD       0.589100
     28 N26          5.6400     0.3390    -0.2160 ns         1 TUD      -0.491900
     29 C25          6.8170    -0.2180    -0.8480 c3         1 TUD       0.134000
     30 C26          7.9340     0.8100    -0.8740 c3         1 TUD      -0.377400
     31 S27          9.4230     0.1680    -1.6630 s6         1 TUD       1.325600
     32 O28          9.0220    -0.1900    -3.0380 o          1 TUD      -0.693533
     33 O29          9.8210    -1.0030    -0.8570 o          1 TUD      -0.693533
     34 O30         10.3980     1.2720    -1.6090 o          1 TUD      -0.693533
     35 H11         -6.1310     2.8670     0.1080 hc         1 TUD       0.038200
     36 H12         -7.7020     2.1320     0.2530 hc         1 TUD       0.038200
     37 H21         -5.8270     1.7020    -2.1230 hc         1 TUD       0.047200
     38 H22         -7.2440     2.7410    -2.0810 hc         1 TUD       0.047200
     39 H3          -8.6730     0.7980    -1.5380 h1         1 TUD       0.020700
     40 HO3         -8.1540     1.2290    -3.7780 ho         1 TUD       0.438000
     41 H41         -6.1320    -0.8330    -1.8780 hc         1 TUD       0.059700
     42 H42         -7.7360    -1.4820    -1.5930 hc         1 TUD       0.059700
     43 H5          -7.9180    -0.3840     0.5490 hc         1 TUD       0.036700
     44 H61         -6.8960    -2.6600     0.4040 hc         1 TUD       0.040700
     45 H62         -6.4730    -1.7630     1.8350 hc         1 TUD       0.040700
     46 H7          -4.5100    -2.8220     1.1510 h1         1 TUD       0.027700
     47 HO7         -5.1650    -3.0620    -1.1070 ho         1 TUD       0.436000
     48 H8          -4.1090    -0.6820     1.9470 hc         1 TUD       0.046700
     49 H9          -4.5230     0.3910    -0.8660 hc         1 TUD       0.062700
     50 H111        -4.0660     2.6080     0.0000 hc         1 TUD       0.033700
     51 H112        -3.8640     2.0030     1.6200 hc         1 TUD       0.033700
     52 H121        -2.0820     1.4370    -0.7930 hc         1 TUD       0.041700
     53 H122        -1.7080     2.4400     0.5940 hc         1 TUD       0.041700
     54 H14         -2.4940    -0.8770    -0.6030 hc         1 TUD       0.063700
     55 H151        -2.0580    -3.0150     0.3830 hc         1 TUD       0.038700
     56 H152        -2.0450    -2.3570     2.0070 hc         1 TUD       0.038700
     57 H161         0.1600    -2.2910     0.0180 hc         1 TUD       0.047200
     58 H162         0.2360    -1.9410     1.7280 hc         1 TUD       0.047200
     59 H17         -0.2750    -0.0730    -0.5860 hc         1 TUD       0.047700
     60 H181        -2.7020     0.6420     2.8930 hc         1 TUD       0.030033
     61 H182        -1.3390    -0.4550     3.0050 hc         1 TUD       0.030033
     62 H183        -1.0710     1.2680     2.8130 hc         1 TUD       0.030033
     63 H191        -7.3630     1.0210     2.3040 hc         1 TUD       0.031367
     64 H192        -5.8550     0.2120     2.6990 hc         1 TUD       0.031367
     65 H193        -5.8670     1.9370     2.3720 hc         1 TUD       0.031367
     66 H20          1.0100     0.2820     2.1420 hc         1 TUD       0.044700
     67 H211         0.8640     2.2490    -0.1990 hc         1 TUD       0.030367
     68 H212         0.1490     2.4810     1.3940 hc         1 TUD       0.030367
     69 H213         1.8850     2.4510     1.2210 hc         1 TUD       0.030367
     70 H221         2.1760    -1.2330     0.5730 hc         1 TUD       0.052700
     71 H222         2.1610     0.0070    -0.6640 hc         1 TUD       0.052700
     72 H231         3.6450     1.4360     0.7530 hc         1 TUD       0.049200
     73 H232         3.5520     0.2580     2.0480 hc         1 TUD       0.049200
     74 H26          5.4590     1.3210    -0.3480 hn         1 TUD       0.301500
     75 H251         7.1320    -1.0950    -0.2840 h1         1 TUD       0.066200
     76 H252         6.5880    -0.5460    -1.8650 h1         1 TUD       0.066200
     77 H261         7.6360     1.7030    -1.4290 h1         1 TUD       0.067200
     78 H262         8.2050     1.1150     0.1380 h1         1 TUD       0.067200
@<TRIPOS>BOND
     1     1     2 1   
     2     1    12 1   
     3     1    35 1   
     4     1    36 1   
     5     2     3 1   
     6     2    37 1   
     7     2    38 1   
     8     3     4 1   
     9     3     5 1   
    10     3    39 1   
    11     4    40 1   
    12     5     6 1   
    13     5    41 1   
    14     5    42 1   
    15     6     7 1   
    16     6    12 1   
    17     6    43 1   
    18     7     8 1   
    19     7    44 1   
    20     7    45 1   
    21     8     9 1   
    22     8    10 1   
    23     8    46 1   
    24     9    47 1   
    25    10    11 1   
    26    10    16 1   
    27    10    48 1   
    28    11    12 1   
    29    11    13 1   
    30    11    49 1   
    31    12    21 1   
    32    13    14 1   
    33    13    50 1   
    34    13    51 1   
    35    14    15 1   
    36    14    52 1   
    37    14    53 1   
    38    15    16 1   
    39    15    19 1   
    40    15    20 1   
    41    16    17 1   
    42    16    54 1   
    43    17    18 1   
    44    17    55 1   
    45    17    56 1   
    46    18    19 1   
    47    18    57 1   
    48    18    58 1   
    49    19    22 1   
    50    19    59 1   
    51    20    60 1   
    52    20    61 1   
    53    20    62 1   
    54    21    63 1   
    55    21    64 1   
    56    21    65 1   
    57    22    23 1   
    58    22    24 1   
    59    22    66 1   
    60    23    67 1   
    61    23    68 1   
    62    23    69 1   
    63    24    25 1   
    64    24    70 1   
    65    24    71 1   
    66    25    27 1   
    67    25    72 1   
    68    25    73 1   
    69    26    27 2   
    70    27    28 1   
    71    28    29 1   
    72    28    74 1   
    73    29    30 1   
    74    29    75 1   
    75    29    76 1   
    76    30    31 1   
    77    30    77 1   
    78    30    78 1   
    79    31    32 1   
    80    31    33 1   
    81    31    34 1   
@<TRIPOS>SUBSTRUCTURE
     1 TUD         1 TEMP              0 ****  ****    0 ROOT
