@<TRIPOS>MOLECULE
TUE
   38    40     1     0     0
SMALL
No Charge or Current Charge


@<TRIPOS>ATOM
      1 N01         -4.0080    -1.3410    -0.6200 nb         1 TUE      -0.760000
      2 C02         -5.2220    -1.5580    -0.1350 ca         1 TUE       0.619900
      3 N02         -5.7460    -2.6730    -0.6470 nv         1 TUE      -1.071900
      4 C03         -5.8860    -0.7330     0.7740 ca         1 TUE      -0.208000
      5 C04         -5.2250     0.4180     1.2270 ca         1 TUE      -0.029000
      6 C05         -3.9330     0.6720     0.7320 ca         1 TUE      -0.122000
      7 C06         -3.2260     1.8130     1.1550 ca         1 TUE      -0.077000
      8 C07         -1.9370     2.0660     0.6610 ca         1 TUE      -0.106000
      9 C08         -1.3460     1.1810    -0.2610 ca         1 TUE      -0.074300
     10 C09         -2.0580     0.0390    -0.6790 ca         1 TUE      -0.080000
     11 C10         -3.3510    -0.2340    -0.1960 ca         1 TUE       0.323000
     12 C11          0.0520     1.4510    -0.7980 c3         1 TUE       0.208900
     13 O12          0.9950     0.7120    -0.0020 os         1 TUE      -0.334100
     14 N21          4.2600     1.5670    -1.5450 nb         1 TUE      -0.640000
     15 C22          2.9270     1.5240    -1.3000 ca         1 TUE       0.252900
     16 C23          2.3540     0.7570    -0.2530 ca         1 TUE       0.090100
     17 C24          3.2100     0.0060     0.5690 ca         1 TUE      -0.089000
     18 C25          4.5970     0.0450     0.3220 ca         1 TUE      -0.098300
     19 C26          5.0720     0.8370    -0.7430 ca         1 TUE       0.298900
     20 C27          5.5640    -0.7470     1.1860 c3         1 TUE       0.144100
     21 N28          5.5470    -2.1670     0.8110 n2         1 TUE      -0.575900
     22 C29          6.6070    -2.7740     0.3960 c2         1 TUE       0.427100
     23 HN02        -5.2560    -3.0240    -1.4610 hn         1 TUE       0.480500
     24 HN0A        -6.7570    -2.7500    -0.6610 hn         1 TUE       0.480500
     25 H03         -6.8840    -0.9780     1.1230 ha         1 TUE       0.121000
     26 H04         -5.7020     1.0900     1.9380 ha         1 TUE       0.118000
     27 H06         -3.6730     2.5040     1.8670 ha         1 TUE       0.113000
     28 H07         -1.3970     2.9490     0.9950 ha         1 TUE       0.120000
     29 H09         -1.6040    -0.6480    -1.3860 ha         1 TUE       0.129000
     30 H11          0.1050     1.1390    -1.8500 h1         1 TUE       0.044700
     31 H11A         0.2640     2.5270    -0.7500 h1         1 TUE       0.044700
     32 H24          2.8050    -0.5950     1.3800 ha         1 TUE       0.145000
     33 H26          6.1380     0.8900    -0.9640 h4         1 TUE       0.017100
     34 H27          6.5710    -0.3170     1.0870 h1         1 TUE       0.052200
     35 H27A         5.2720    -0.6310     2.2380 h1         1 TUE       0.052200
     36 H29          7.5600    -2.2590     0.3050 h4         1 TUE      -0.018200
     37 H29A         6.5740    -3.8250     0.1230 h4         1 TUE      -0.018200
     38 H22          2.3110     2.1250    -1.9670 h4         1 TUE       0.021100
@<TRIPOS>BOND
     1     1     2 ar  
     2     1    11 ar  
     3     2     3 1   
     4     2     4 ar  
     5     3    23 1   
     6     3    24 1   
     7     4     5 ar  
     8     4    25 1   
     9     5     6 ar  
    10     5    26 1   
    11     6     7 ar  
    12     6    11 ar  
    13     7     8 ar  
    14     7    27 1   
    15     8     9 ar  
    16     8    28 1   
    17     9    10 ar  
    18     9    12 1   
    19    10    11 ar  
    20    10    29 1   
    21    12    13 1   
    22    12    30 1   
    23    12    31 1   
    24    13    16 1   
    25    14    15 ar  
    26    14    19 ar  
    27    15    16 ar  
    28    15    38 1   
    29    16    17 ar  
    30    17    18 ar  
    31    17    32 1   
    32    18    19 ar  
    33    18    20 1   
    34    19    33 1   
    35    20    21 1   
    36    20    34 1   
    37    20    35 1   
    38    21    22 2   
    39    22    36 1   
    40    22    37 1   
@<TRIPOS>SUBSTRUCTURE
     1 TUE         1 TEMP              0 ****  ****    0 ROOT
