@<TRIPOS>MOLECULE
TUE
   38    40     1     0     0
SMALL
abcg2


@<TRIPOS>ATOM
      1 N01         -4.2920    -1.0290    -0.9660 nb         1 TUE      -0.760000
      2 C02         -5.4680    -1.2560    -0.4280 ca         1 TUE       0.619900
      3 N02         -6.3080    -2.1130    -1.0570 nv         1 TUE      -1.071900
      4 C03         -5.8780    -0.6660     0.8090 ca         1 TUE      -0.208000
      5 C04         -5.0170     0.1570     1.4580 ca         1 TUE      -0.029000
      6 C05         -3.7360     0.4160     0.9070 ca         1 TUE      -0.122000
      7 C06         -2.7870     1.2580     1.5210 ca         1 TUE      -0.077000
      8 C07         -1.5670     1.4740     0.9390 ca         1 TUE      -0.106000
      9 C08         -1.2470     0.8520    -0.2870 ca         1 TUE      -0.074300
     10 C09         -2.1590     0.0270    -0.8970 ca         1 TUE      -0.080000
     11 C10         -3.4280    -0.2110    -0.3210 ca         1 TUE       0.323000
     12 C11          0.0930     1.0970    -0.9120 c3         1 TUE       0.208900
     13 O12          1.0740     0.5240    -0.0560 os         1 TUE      -0.334100
     14 N21          4.1340     1.4260    -1.7940 nb         1 TUE      -0.640000
     15 C22          2.8400     1.3130    -1.5240 ca         1 TUE       0.252900
     16 C23          2.3710     0.6700    -0.3780 ca         1 TUE       0.090100
     17 C24          3.3040     0.1350     0.5050 ca         1 TUE      -0.089000
     18 C25          4.6540     0.2590     0.2230 ca         1 TUE      -0.098300
     19 C26          5.0160     0.9140    -0.9500 ca         1 TUE       0.298900
     20 C27          5.7010    -0.3020     1.1470 c3         1 TUE       0.144100
     21 N28          5.5080    -1.7270     1.3120 n2         1 TUE      -0.575900
     22 C29          6.4590    -2.4860     0.9880 c2         1 TUE       0.427100
     23 HN02        -6.0980    -2.3610    -2.0100 hn         1 TUE       0.480500
     24 HN0A        -7.2830    -2.1120    -0.8120 hn         1 TUE       0.480500
     25 H03         -6.8610    -0.8790     1.2110 ha         1 TUE       0.121000
     26 H04         -5.3000     0.6190     2.3960 ha         1 TUE       0.118000
     27 H06         -3.0370     1.7350     2.4610 ha         1 TUE       0.113000
     28 H07         -0.8490     2.1300     1.4150 ha         1 TUE       0.120000
     29 H09         -1.9220    -0.4560    -1.8370 ha         1 TUE       0.129000
     30 H11          0.1410     0.6490    -1.9090 h1         1 TUE       0.044700
     31 H11A         0.2710     2.1730    -1.0190 h1         1 TUE       0.044700
     32 H24          2.9670    -0.3680     1.4030 ha         1 TUE       0.145000
     33 H26          6.0630     1.0240    -1.2110 h4         1 TUE       0.017100
     34 H27          6.7000    -0.0460     0.7720 h1         1 TUE       0.052200
     35 H27A         5.5960     0.1650     2.1310 h1         1 TUE       0.052200
     36 H29          7.4150    -2.1330     0.5930 h4         1 TUE      -0.018200
     37 H29A         6.3430    -3.5610     1.0990 h4         1 TUE      -0.018200
     38 H22          2.1620     1.7480    -2.2490 h4         1 TUE       0.021100
@<TRIPOS>BOND
     1     1     2 ar  
     2     1    11 ar  
     3     2     3 1   
     4     2     4 ar  
     5     3    23 1   
     6     3    24 1   
     7     4     5 ar  
     8     4    25 1   
     9     5     6 ar  
    10     5    26 1   
    11     6     7 ar  
    12     6    11 ar  
    13     7     8 ar  
    14     7    27 1   
    15     8     9 ar  
    16     8    28 1   
    17     9    10 ar  
    18     9    12 1   
    19    10    11 ar  
    20    10    29 1   
    21    12    13 1   
    22    12    30 1   
    23    12    31 1   
    24    13    16 1   
    25    14    15 ar  
    26    14    19 ar  
    27    15    16 ar  
    28    15    38 1   
    29    16    17 ar  
    30    17    18 ar  
    31    17    32 1   
    32    18    19 ar  
    33    18    20 1   
    34    19    33 1   
    35    20    21 1   
    36    20    34 1   
    37    20    35 1   
    38    21    22 2   
    39    22    36 1   
    40    22    37 1   
@<TRIPOS>SUBSTRUCTURE
     1 TUE         1 TEMP              0 ****  ****    0 ROOT
