@<TRIPOS>MOLECULE
TUG
   30    30     1     0     0
SMALL
No Charge or Current Charge


@<TRIPOS>ATOM
      1 O6          15.9080    34.3020    26.5840 oh         1 TUG      -0.709000
      2 C6          14.6490    34.9920    26.5580 c3         1 TUG       0.127600
      3 C5          14.7180    36.5600    26.4290 c6         1 TUG       0.155300
      4 C4          15.3030    37.0870    25.0670 c6         1 TUG       0.182300
      5 O4          14.9190    38.4740    24.8270 os         1 TUG      -0.577700
      6 C3          16.8680    36.9390    25.0540 c6         1 TUG       0.246300
      7 O3          17.4360    37.4620    23.8250 os         1 TUG      -0.557700
      8 C2          17.4510    37.6790    26.3020 c6         1 TUG       0.147300
      9 O2          18.9030    37.6310    26.3590 oh         1 TUG      -0.697000
     10 O5          15.3980    37.1720    27.5690 os         1 TUG      -0.489000
     11 C1          16.8240    37.0560    27.5920 c6         1 TUG       0.350300
     12 O31         16.5720    35.6210    22.4470 o          1 TUG      -0.717200
     13 S3          17.8050    36.3970    22.6340 s6         1 TUG       1.501300
     14 O33         18.9250    35.6170    23.1800 o          1 TUG      -0.717200
     15 O32         18.1640    37.2520    21.4930 o          1 TUG      -0.717200
     16 S4          13.3610    38.8540    24.4550 s6         1 TUG       1.501300
     17 O41         12.8190    39.3760    25.7170 o          1 TUG      -0.717200
     18 O42         13.4890    39.8650    23.3960 o          1 TUG      -0.717200
     19 O43         12.7520    37.5900    24.0180 o          1 TUG      -0.717200
     20 H61         14.0910    34.7640    27.4760 h1         1 TUG       0.016700
     21 H62         14.0440    34.6170    25.7220 h1         1 TUG       0.016700
     22 H5          13.6680    36.8770    26.4870 h1         1 TUG       0.092700
     23 H4          14.9100    36.4610    24.2530 h1         1 TUG       0.106700
     24 H3          17.1380    35.8780    25.1430 h1         1 TUG       0.055700
     25 H2          17.1210    38.7270    26.2510 h1         1 TUG       0.083700
     26 HO2         19.1370    37.9070    27.2750 ho         1 TUG       0.477000
     27 H1          17.1290    36.0070    27.7050 h2         1 TUG       0.024700
     28 HO6         15.7120    33.3470    26.7260 ho         1 TUG       0.482000
     29 O1          17.2230    37.7820    28.7420 oh         1 TUG      -0.661000
     30 HO1         16.3980    37.8450    29.2670 ho         1 TUG       0.426000
@<TRIPOS>BOND
     1     1     2 1   
     2     1    28 1   
     3     2     3 1   
     4     2    20 1   
     5     2    21 1   
     6     3     4 1   
     7     3    10 1   
     8     3    22 1   
     9     4     5 1   
    10     4     6 1   
    11     4    23 1   
    12     5    16 1   
    13     6     7 1   
    14     6     8 1   
    15     6    24 1   
    16     7    13 1   
    17     8     9 1   
    18     8    11 1   
    19     8    25 1   
    20     9    26 1   
    21    10    11 1   
    22    11    27 1   
    23    11    29 1   
    24    12    13 1   
    25    13    14 1   
    26    13    15 1   
    27    16    17 1   
    28    16    18 1   
    29    16    19 1   
    30    29    30 1   
@<TRIPOS>SUBSTRUCTURE
     1 TUG         1 TEMP              0 ****  ****    0 ROOT
