@<TRIPOS>MOLECULE
TUG
   30    30     1     0     0
SMALL
bcc


@<TRIPOS>ATOM
      1 O6          15.7770    34.3690    26.4860 oh         1 TUG      -0.586800
      2 C6          14.5680    35.0560    26.7130 c3         1 TUG       0.104400
      3 C5          14.7200    36.5600    26.5460 c6         1 TUG       0.132100
      4 C4          15.2870    36.9820    25.1860 c6         1 TUG       0.159100
      5 O4          14.9150    38.3200    24.8940 os         1 TUG      -0.554500
      6 C3          16.8170    36.9430    25.1590 c6         1 TUG       0.223100
      7 O3          17.3230    37.5650    23.9910 os         1 TUG      -0.534500
      8 C2          17.4060    37.6640    26.3590 c6         1 TUG       0.124100
      9 O2          18.7960    37.4700    26.3460 oh         1 TUG      -0.574800
     10 O5          15.3870    37.2030    27.6150 os         1 TUG      -0.442600
     11 C1          16.7910    37.0970    27.6380 c6         1 TUG       0.303900
     12 O31         16.3460    36.0520    22.2800 o          1 TUG      -0.717200
     13 S3          17.6350    36.6270    22.6760 s6         1 TUG       1.501300
     14 O33         18.6110    35.6330    23.1280 o          1 TUG      -0.717200
     15 O32         18.1620    37.6270    21.7510 o          1 TUG      -0.717200
     16 S4          13.5070    38.6550    24.1000 s6         1 TUG       1.501300
     17 O41         12.6210    39.1780    25.1420 o          1 TUG      -0.717200
     18 O42         13.9420    39.6540    23.1270 o          1 TUG      -0.717200
     19 O43         13.0540    37.3880    23.5190 o          1 TUG      -0.717200
     20 H61         14.1760    34.8650    27.7200 h1         1 TUG       0.016700
     21 H62         13.7910    34.7380    26.0050 h1         1 TUG       0.016700
     22 H5          13.6940    36.9360    26.5980 h1         1 TUG       0.092700
     23 H4          14.9030    36.3070    24.4200 h1         1 TUG       0.106700
     24 H3          17.1270    35.8940    25.2100 h1         1 TUG       0.055700
     25 H2          17.1480    38.7330    26.3030 h1         1 TUG       0.083700
     26 HO2         19.1700    37.9370    27.1010 ho         1 TUG       0.378000
     27 H1          17.0960    36.0470    27.7490 h2         1 TUG       0.024700
     28 HO6         15.6140    33.4260    26.5800 ho         1 TUG       0.383000
     29 O1          17.2530    37.8600    28.6960 oh         1 TUG      -0.598800
     30 HO1         17.1990    37.3500    29.5110 ho         1 TUG       0.387000
@<TRIPOS>BOND
     1     1     2 1   
     2     1    28 1   
     3     2     3 1   
     4     2    20 1   
     5     2    21 1   
     6     3     4 1   
     7     3    10 1   
     8     3    22 1   
     9     4     5 1   
    10     4     6 1   
    11     4    23 1   
    12     5    16 1   
    13     6     7 1   
    14     6     8 1   
    15     6    24 1   
    16     7    13 1   
    17     8     9 1   
    18     8    11 1   
    19     8    25 1   
    20     9    26 1   
    21    10    11 1   
    22    11    27 1   
    23    11    29 1   
    24    12    13 1   
    25    13    14 1   
    26    13    15 1   
    27    16    17 1   
    28    16    18 1   
    29    16    19 1   
    30    29    30 1   
@<TRIPOS>SUBSTRUCTURE
     1 TUG         1 TEMP              0 ****  ****    0 ROOT
