@<TRIPOS>MOLECULE
TUH
   47    50     1     0     0
SMALL
No Charge or Current Charge


@<TRIPOS>ATOM
      1 C4          -1.5220     0.7240     0.3690 ca         1 TUH      -0.199900
      2 C5          -1.1880    -0.0320     1.5080 ca         1 TUH       0.216100
      3 C6          -1.8690    -1.2210     1.7900 ca         1 TUH      -0.314000
      4 C7          -0.8410     1.9780     0.0470 cc         1 TUH       0.448500
      5 C13          2.8150     1.3040     0.5100 ca         1 TUH      -0.068000
      6 C15          3.7820     0.2760     0.5480 ca         1 TUH      -0.124000
      7 C17          2.2160    -1.1720    -0.5690 ca         1 TUH      -0.094800
      8 C20          3.4360    -3.1470    -0.7410 cc         1 TUH      -0.159100
      9 C21          5.5610    -2.2350     0.4060 c3         1 TUH       0.064900
     10 C24         -3.8970    -1.6180    -2.5420 c3         1 TUH      -0.086100
     11 C1          -2.9010    -1.6610     0.9530 ca         1 TUH       0.200100
     12 C2          -3.2810    -0.9010    -0.1770 ca         1 TUH      -0.144300
     13 C3          -2.5870     0.2980    -0.4480 ca         1 TUH      -0.003000
     14 N8           0.5500     2.1500    -0.0290 n          1 TUH      -0.234500
     15 C9           0.7930     3.5020    -0.2600 c          1 TUH       0.565000
     16 N10         -0.4620     4.0220    -0.3170 ns         1 TUH      -0.373400
     17 N11         -1.4830     3.1310    -0.1470 nd         1 TUH      -0.488300
     18 C12          1.5450     1.1040    -0.1010 ca         1 TUH       0.036600
     19 C14          1.2340    -0.1780    -0.6240 ca         1 TUH      -0.059000
     20 C16          3.4450    -0.9630    -0.0130 ca         1 TUH      -0.050200
     21 C18          2.2190    -2.5400    -1.0220 cd         1 TUH      -0.236200
     22 N19          4.1860    -2.1360    -0.1070 na         1 TUH      -0.086700
     23 C23         -5.5750    -0.3170    -1.1200 c3         1 TUH      -0.086100
     24 O25         -3.5320    -2.8270     1.2680 oh         1 TUH      -0.528100
     25 O26         -0.2300     0.3920     2.3750 oh         1 TUH      -0.516100
     26 O27          1.8510     4.0890    -0.4280 o          1 TUH      -0.559000
     27 H6          -1.6000    -1.8010     2.6690 ha         1 TUH       0.116000
     28 H13          3.0520     2.2600     0.9700 ha         1 TUH       0.130000
     29 H15          4.7520     0.4430     1.0100 ha         1 TUH       0.117000
     30 H20          3.8090    -4.1500    -0.9250 h4         1 TUH       0.211000
     31 H21          6.1960    -1.4980    -0.1000 h1         1 TUH       0.049033
     32 H21A         5.5650    -2.0400     1.4860 h1         1 TUH       0.049033
     33 H21B         5.9560    -3.2410     0.2190 h1         1 TUH       0.049033
     34 H22         -4.8530    -2.2860    -0.7630 hc         1 TUH       0.062700
     35 H24         -3.5090    -0.7050    -3.0090 hc         1 TUH       0.034700
     36 H24A        -3.0910    -2.3610    -2.5180 hc         1 TUH       0.034700
     37 H24B        -4.7000    -2.0100    -3.1770 hc         1 TUH       0.034700
     38 H3          -2.8640     0.8980    -1.3120 ha         1 TUH       0.131000
     39 HN10        -0.5930     5.0210    -0.4960 hn         1 TUH       0.488000
     40 H14          0.2770    -0.3920    -1.0900 ha         1 TUH       0.126000
     41 H18          1.3850    -3.0350    -1.5160 ha         1 TUH       0.208000
     42 H23         -5.2540     0.6460    -1.5320 hc         1 TUH       0.034700
     43 H23A        -6.4130    -0.6840    -1.7250 hc         1 TUH       0.034700
     44 H23B        -5.9430    -0.1490    -0.1000 hc         1 TUH       0.034700
     45 HO25        -3.1180    -3.1830     2.0810 ho         1 TUH       0.467000
     46 HO26        -0.1530    -0.2740     3.0880 ho         1 TUH       0.468000
     47 C22         -4.4190    -1.3420    -1.1140 c3         1 TUH      -0.000400
@<TRIPOS>BOND
     1     1     2 ar  
     2     1     4 1   
     3     1    13 ar  
     4     2     3 ar  
     5     2    25 1   
     6     3    11 ar  
     7     3    27 1   
     8     4    14 1   
     9     4    17 2   
    10     5     6 ar  
    11     5    18 ar  
    12     5    28 1   
    13     6    20 ar  
    14     6    29 1   
    15     7    19 ar  
    16     7    20 ar  
    17     7    21 1   
    18     8    21 2   
    19     8    22 1   
    20     8    30 1   
    21     9    22 1   
    22     9    31 1   
    23     9    32 1   
    24     9    33 1   
    25    10    35 1   
    26    10    36 1   
    27    10    37 1   
    28    10    47 1   
    29    11    12 ar  
    30    11    24 1   
    31    12    13 ar  
    32    12    47 1   
    33    13    38 1   
    34    14    15 1   
    35    14    18 1   
    36    15    16 1   
    37    15    26 2   
    38    16    17 1   
    39    16    39 1   
    40    18    19 ar  
    41    19    40 1   
    42    20    22 1   
    43    21    41 1   
    44    23    42 1   
    45    23    43 1   
    46    23    44 1   
    47    23    47 1   
    48    24    45 1   
    49    25    46 1   
    50    34    47 1   
@<TRIPOS>SUBSTRUCTURE
     1 TUH         1 TEMP              0 ****  ****    0 ROOT
