@<TRIPOS>MOLECULE
TUH
   47    50     1     0     0
SMALL
bcc


@<TRIPOS>ATOM
      1 C4          -1.5470     0.7850     0.5360 ca         1 TUH      -0.199900
      2 C5          -1.1810     0.0100     1.6370 ca         1 TUH       0.216100
      3 C6          -1.8530    -1.1780     1.8920 ca         1 TUH      -0.332000
      4 C7          -0.8490     2.0270     0.2150 cc         1 TUH       0.448500
      5 C13          2.5670     1.1410     0.8180 ca         1 TUH      -0.086000
      6 C15          3.5200     0.1460     0.8130 ca         1 TUH      -0.142000
      7 C17          2.2090    -1.0150    -0.9100 ca         1 TUH      -0.094800
      8 C20          3.4980    -2.8190    -1.2050 cc         1 TUH      -0.109100
      9 C21          5.3330    -2.3290     0.4320 c3         1 TUH       0.035600
     10 C24         -3.8290    -2.1620    -2.0600 c3         1 TUH      -0.086100
     11 C1          -2.8950    -1.5870     1.0660 ca         1 TUH       0.200100
     12 C2          -3.3080    -0.8110    -0.0270 ca         1 TUH      -0.144300
     13 C3          -2.6080     0.3610    -0.2600 ca         1 TUH      -0.021000
     14 N8           0.5060     2.1240    -0.0050 n          1 TUH      -0.301500
     15 C9           0.7900     3.4360    -0.3470 c          1 TUH       0.774500
     16 N10         -0.4300     4.0210    -0.2960 ns         1 TUH      -0.326900
     17 N11         -1.4270     3.1680     0.0460 nd         1 TUH      -0.488300
     18 C12          1.4560     1.0740    -0.0360 ca         1 TUH       0.036600
     19 C14          1.2670     0.0170    -0.9030 ca         1 TUH      -0.077000
     20 C16          3.3290    -0.9310    -0.0530 ca         1 TUH      -0.050200
     21 C18          2.3420    -2.2360    -1.6380 cd         1 TUH      -0.186200
     22 N19          4.0960    -2.0410    -0.2530 na         1 TUH      -0.057400
     23 C23         -5.2420    -0.1500    -1.5320 c3         1 TUH      -0.086100
     24 O25         -3.5410    -2.7450     1.2910 oh         1 TUH      -0.489100
     25 O26         -0.2000     0.4720     2.4260 oh         1 TUH      -0.477100
     26 O27          1.8730     3.9180    -0.6310 o          1 TUH      -0.634500
     27 H6          -1.5690    -1.7860     2.7460 ha         1 TUH       0.134000
     28 H13          2.6680     1.9770     1.4960 ha         1 TUH       0.148000
     29 H15          4.3780     0.2010     1.4720 ha         1 TUH       0.135000
     30 H20          3.9510    -3.7500    -1.5070 h4         1 TUH       0.161000
     31 H21          6.0750    -1.5540     0.2390 h1         1 TUH       0.049033
     32 H21A         5.1750    -2.4020     1.5080 h1         1 TUH       0.049033
     33 H21B         5.7260    -3.2770     0.0770 h1         1 TUH       0.049033
     34 H22         -5.0930    -1.9100    -0.3620 hc         1 TUH       0.062700
     35 H24         -3.1660    -1.5800    -2.7030 hc         1 TUH       0.034700
     36 H24A        -3.2540    -2.9960    -1.6560 hc         1 TUH       0.034700
     37 H24B        -4.6230    -2.5760    -2.6850 hc         1 TUH       0.034700
     38 H3          -2.8800     0.9790    -1.1060 ha         1 TUH       0.149000
     39 HN10        -0.6290     4.9920    -0.4700 hn         1 TUH       0.374500
     40 H14          0.4070    -0.0090    -1.5610 ha         1 TUH       0.144000
     41 H18          1.6700    -2.6320    -2.3820 ha         1 TUH       0.158000
     42 H23         -4.6620     0.4860    -2.2040 hc         1 TUH       0.034700
     43 H23A        -6.0700    -0.5560    -2.1150 hc         1 TUH       0.034700
     44 H23B        -5.6640     0.4830    -0.7510 hc         1 TUH       0.034700
     45 HO25        -3.1820    -3.1900     2.0670 ho         1 TUH       0.428000
     46 HO26         0.0250    -0.1710     3.1070 ho         1 TUH       0.429000
     47 C22         -4.4110    -1.2880    -0.9470 c3         1 TUH      -0.000400
@<TRIPOS>BOND
     1     1     2 ar  
     2     1     4 1   
     3     1    13 ar  
     4     2     3 ar  
     5     2    25 1   
     6     3    11 ar  
     7     3    27 1   
     8     4    14 1   
     9     4    17 2   
    10     5     6 ar  
    11     5    18 ar  
    12     5    28 1   
    13     6    20 ar  
    14     6    29 1   
    15     7    19 ar  
    16     7    20 ar  
    17     7    21 1   
    18     8    21 2   
    19     8    22 1   
    20     8    30 1   
    21     9    22 1   
    22     9    31 1   
    23     9    32 1   
    24     9    33 1   
    25    10    35 1   
    26    10    36 1   
    27    10    37 1   
    28    10    47 1   
    29    11    12 ar  
    30    11    24 1   
    31    12    13 ar  
    32    12    47 1   
    33    13    38 1   
    34    14    15 1   
    35    14    18 1   
    36    15    16 1   
    37    15    26 2   
    38    16    17 1   
    39    16    39 1   
    40    18    19 ar  
    41    19    40 1   
    42    20    22 1   
    43    21    41 1   
    44    23    42 1   
    45    23    43 1   
    46    23    44 1   
    47    23    47 1   
    48    24    45 1   
    49    25    46 1   
    50    34    47 1   
@<TRIPOS>SUBSTRUCTURE
     1 TUH         1 TEMP              0 ****  ****    0 ROOT
