@<TRIPOS>MOLECULE
TUI
   50    53     1     0     0
SMALL
No Charge or Current Charge


@<TRIPOS>ATOM
      1 O21         -1.6910    -2.7780     0.2090 o          1 TUI      -0.593100
      2 C19         -1.7300    -2.4040    -0.9500 c          1 TUI       0.663100
      3 N20         -2.8010    -1.8200    -1.5620 ns         1 TUI      -0.494400
      4 C22         -4.0410    -1.5250    -1.0480 cc         1 TUI       0.610300
      5 S23         -5.2640    -0.7680    -2.0520 ss         1 TUI      -0.054400
      6 C24         -6.2630    -0.7530    -0.6430 cc         1 TUI      -0.312000
      7 S27         -7.9670    -0.2980    -0.5860 ss         1 TUI      -0.079300
      8 C28         -7.6200     1.0430     0.5600 ca         1 TUI       0.443300
      9 N29         -8.2340     1.0000     1.7660 nb         1 TUI      -0.663000
     10 C30         -7.9780     1.9970     2.6440 ca         1 TUI       0.351900
     11 C31         -7.1080     3.0620     2.3590 ca         1 TUI      -0.170000
     12 C32         -6.4700     3.1100     1.1100 ca         1 TUI      -0.065000
     13 C33         -6.7350     2.0770     0.1960 ca         1 TUI      -0.153000
     14 C25         -5.6990    -1.3810     0.4390 cd         1 TUI       0.378900
     15 N26         -4.3960    -1.7980     0.2030 nd         1 TUI      -0.672000
     16 N18         -0.6560    -2.5270    -1.7940 ns         1 TUI      -0.517900
     17 C17          0.6370    -3.1250    -1.4090 c3         1 TUI       0.094700
     18 C15          1.4850    -2.2590    -0.4990 cc         1 TUI       0.339800
     19 N16          2.6900    -1.7910    -0.7840 nd         1 TUI      -0.675000
     20 N14          1.0970    -1.8540     0.7530 na         1 TUI      -0.282500
     21 C13          2.1130    -1.0870     1.2870 cc         1 TUI      -0.228000
     22 C12          3.0880    -1.0620     0.3200 cd         1 TUI       0.336500
     23 C3           4.3930    -0.3700     0.3940 ca         1 TUI      -0.196500
     24 C2           4.7520     0.3630     1.5450 ca         1 TUI      -0.055500
     25 C1           5.9920     1.0200     1.6150 ca         1 TUI      -0.198500
     26 C4           5.3060    -0.4290    -0.6840 ca         1 TUI      -0.055500
     27 C5           6.5460     0.2300    -0.6110 ca         1 TUI      -0.198500
     28 C6           6.8940     0.9600     0.5440 ca         1 TUI       0.181100
     29 O7           8.0970     1.6250     0.6700 os         1 TUI      -0.292100
     30 C8           9.0950     1.6230    -0.3790 c3         1 TUI       0.000600
     31 C9          10.3710     2.4400    -0.0140 c          1 TUI       0.729000
     32 O11         11.2670     2.4900    -0.8470 o          1 TUI      -0.713000
     33 O10         10.4420     2.9990     1.0740 o          1 TUI      -0.713000
     34 H81          9.4120     0.5950    -0.5970 h1         1 TUI       0.018200
     35 H82          8.6780     2.0550    -1.2980 h1         1 TUI       0.018200
     36 H5           7.2210     0.1630    -1.4590 ha         1 TUI       0.124000
     37 H4           5.0600    -0.9850    -1.5850 ha         1 TUI       0.102000
     38 H2           4.0760     0.4310     2.3940 ha         1 TUI       0.102000
     39 H1           6.2560     1.5820     2.5080 ha         1 TUI       0.124000
     40 H13          2.0660    -0.6370     2.2700 h4         1 TUI       0.158000
     41 H14          0.2020    -2.0810     1.1770 hn         1 TUI       0.365000
     42 H171         0.4500    -4.0830    -0.9070 h1         1 TUI       0.074700
     43 H172         1.2060    -3.3410    -2.3220 h1         1 TUI       0.074700
     44 H18         -0.7600    -2.1840    -2.7410 hn         1 TUI       0.318500
     45 H20         -2.6570    -1.5720    -2.5280 hn         1 TUI       0.328500
     46 H25         -6.1650    -1.5550     1.4020 h4         1 TUI       0.048100
     47 H33         -6.2660     2.0750    -0.7830 ha         1 TUI       0.129000
     48 H32         -5.7910     3.9220     0.8560 ha         1 TUI       0.118000
     49 H31         -6.9360     3.8370     3.1010 ha         1 TUI       0.126000
     50 H30         -8.4860     1.9380     3.6060 h4         1 TUI       0.025100
@<TRIPOS>BOND
     1     1     2 2   
     2     2     3 1   
     3     2    16 1   
     4     3     4 1   
     5     3    45 1   
     6     4     5 1   
     7     4    15 2   
     8     5     6 1   
     9     6     7 1   
    10     6    14 2   
    11     7     8 1   
    12     8     9 ar  
    13     8    13 ar  
    14     9    10 ar  
    15    10    11 ar  
    16    10    50 1   
    17    11    12 ar  
    18    11    49 1   
    19    12    13 ar  
    20    12    48 1   
    21    13    47 1   
    22    14    15 1   
    23    14    46 1   
    24    16    17 1   
    25    16    44 1   
    26    17    18 1   
    27    17    42 1   
    28    17    43 1   
    29    18    19 2   
    30    18    20 1   
    31    19    22 1   
    32    20    21 1   
    33    20    41 1   
    34    21    22 2   
    35    21    40 1   
    36    22    23 1   
    37    23    24 ar  
    38    23    26 ar  
    39    24    25 ar  
    40    24    38 1   
    41    25    28 ar  
    42    25    39 1   
    43    26    27 ar  
    44    26    37 1   
    45    27    28 ar  
    46    27    36 1   
    47    28    29 1   
    48    29    30 1   
    49    30    31 1   
    50    30    34 1   
    51    30    35 1   
    52    31    32 1   
    53    31    33 1   
@<TRIPOS>SUBSTRUCTURE
     1 TUI         1 TEMP              0 ****  ****    0 ROOT
