@<TRIPOS>MOLECULE
TUI
   50    53     1     0     0
SMALL
bcc


@<TRIPOS>ATOM
      1 O21         -1.6490    -3.1670     0.0520 o          1 TUI      -0.593100
      2 C19         -1.5270    -2.5970    -1.0170 c          1 TUI       0.797100
      3 N20         -2.5230    -1.8130    -1.5830 ns         1 TUI      -0.561400
      4 C22         -3.7740    -1.6150    -1.0690 cc         1 TUI       0.610300
      5 S23         -4.7140    -0.2750    -1.6510 ss         1 TUI      -0.199300
      6 C24         -5.9920    -0.7610    -0.5850 cc         1 TUI      -0.105500
      7 S27         -7.5430     0.0070    -0.5430 ss         1 TUI      -0.206200
      8 C28         -7.2220     1.4880     0.3910 ca         1 TUI       0.508600
      9 N29         -6.0140     1.6970     0.8670 nb         1 TUI      -0.663000
     10 C30         -5.8030     2.8120     1.5620 ca         1 TUI       0.417200
     11 C31         -6.7880     3.7530     1.8090 ca         1 TUI      -0.253300
     12 C32         -8.0600     3.5170     1.2980 ca         1 TUI      -0.083000
     13 C33         -8.2900     2.3650     0.5690 ca         1 TUI      -0.236300
     14 C25         -5.5980    -1.8590     0.1090 cd         1 TUI       0.444200
     15 N26         -4.3580    -2.3420    -0.1700 nd         1 TUI      -0.672000
     16 N18         -0.4160    -2.6690    -1.7790 ns         1 TUI      -0.584900
     17 C17          0.7590    -3.3840    -1.3310 c3         1 TUI       0.094700
     18 C15          1.5930    -2.6140    -0.3610 cc         1 TUI       0.339800
     19 N16          2.7120    -1.9960    -0.6420 nd         1 TUI      -0.675000
     20 N14          1.2660    -2.4460     0.9380 na         1 TUI      -0.282900
     21 C13          2.2260    -1.6750     1.5180 cc         1 TUI      -0.260600
     22 C12          3.1290    -1.4020     0.5190 cd         1 TUI       0.401800
     23 C3           4.3600    -0.6170     0.5840 ca         1 TUI      -0.196500
     24 C2           4.8410    -0.1020     1.7920 ca         1 TUI      -0.073500
     25 C1           6.0040     0.6390     1.8460 ca         1 TUI      -0.216500
     26 C4           5.1010    -0.3550    -0.5650 ca         1 TUI      -0.073500
     27 C5           6.2740     0.3890    -0.5260 ca         1 TUI      -0.216500
     28 C6           6.7410     0.8950     0.6850 ca         1 TUI       0.181100
     29 O7           7.8620     1.6200     0.8340 os         1 TUI      -0.268900
     30 C8           8.6430     1.9030    -0.3110 c3         1 TUI      -0.022600
     31 C9           9.8920     2.7160     0.0650 c          1 TUI       0.939600
     32 O11         10.6120     3.0000    -0.9120 o          1 TUI      -0.818300
     33 O10         10.0710     3.0050     1.2560 o          1 TUI      -0.818300
     34 H81          8.9590     0.9730    -0.8020 h1         1 TUI       0.018200
     35 H82          8.0570     2.4670    -1.0480 h1         1 TUI       0.018200
     36 H5           6.8060     0.5600    -1.4520 ha         1 TUI       0.142000
     37 H4           4.7580    -0.7360    -1.5180 ha         1 TUI       0.120000
     38 H2           4.3040    -0.2830     2.7150 ha         1 TUI       0.120000
     39 H1           6.3580     1.0240     2.7950 ha         1 TUI       0.142000
     40 H13          2.1830    -1.3970     2.5570 h4         1 TUI       0.176000
     41 H14          0.4440    -2.8160     1.3910 hn         1 TUI       0.314700
     42 H171         0.4610    -4.3430    -0.9070 h1         1 TUI       0.074700
     43 H172         1.3670    -3.5970    -2.2080 h1         1 TUI       0.074700
     44 H18         -0.3220    -2.0980    -2.6040 hn         1 TUI       0.318500
     45 H20         -2.2990    -1.3120    -2.4310 hn         1 TUI       0.328500
     46 H25         -6.2170    -2.3620     0.8390 h4         1 TUI       0.048100
     47 H33         -9.2670     2.1510     0.1530 ha         1 TUI       0.147000
     48 H32         -8.8630     4.2220     1.4660 ha         1 TUI       0.136000
     49 H31         -6.5660     4.6420     2.3820 ha         1 TUI       0.144000
     50 H30         -4.7980     2.9570     1.9400 h4         1 TUI       0.025100
@<TRIPOS>BOND
     1     1     2 2   
     2     2     3 1   
     3     2    16 1   
     4     3     4 1   
     5     3    45 1   
     6     4     5 1   
     7     4    15 2   
     8     5     6 1   
     9     6     7 1   
    10     6    14 2   
    11     7     8 1   
    12     8     9 ar  
    13     8    13 ar  
    14     9    10 ar  
    15    10    11 ar  
    16    10    50 1   
    17    11    12 ar  
    18    11    49 1   
    19    12    13 ar  
    20    12    48 1   
    21    13    47 1   
    22    14    15 1   
    23    14    46 1   
    24    16    17 1   
    25    16    44 1   
    26    17    18 1   
    27    17    42 1   
    28    17    43 1   
    29    18    19 2   
    30    18    20 1   
    31    19    22 1   
    32    20    21 1   
    33    20    41 1   
    34    21    22 2   
    35    21    40 1   
    36    22    23 1   
    37    23    24 ar  
    38    23    26 ar  
    39    24    25 ar  
    40    24    38 1   
    41    25    28 ar  
    42    25    39 1   
    43    26    27 ar  
    44    26    37 1   
    45    27    28 ar  
    46    27    36 1   
    47    28    29 1   
    48    29    30 1   
    49    30    31 1   
    50    30    34 1   
    51    30    35 1   
    52    31    32 1   
    53    31    33 1   
@<TRIPOS>SUBSTRUCTURE
     1 TUI         1 TEMP              0 ****  ****    0 ROOT
