@<TRIPOS>MOLECULE
TUJ
   36    36     1     0     0
SMALL
No Charge or Current Charge


@<TRIPOS>ATOM
      1 O6          18.6010    36.8200    28.6010 oh         1 TUJ      -0.689000
      2 C6          18.7690    38.2400    28.7320 c3         1 TUJ       0.115600
      3 C5          17.6520    38.9220    29.6020 c6         1 TUJ       0.157300
      4 O5          17.5820    38.3150    30.9250 os         1 TUJ      -0.429000
      5 C1          18.7190    38.5690    31.7830 c6         1 TUJ       0.425300
      6 O1          18.5910    37.8190    32.9940 os         1 TUJ      -0.529700
      7 C4          17.8170    40.4750    29.6950 c6         1 TUJ       0.204300
      8 O4          16.5750    41.0910    30.1130 os         1 TUJ      -0.503700
      9 C3          19.0070    40.7890    30.6740 c6         1 TUJ       0.220300
     10 O3          19.2320    42.2130    30.7880 os         1 TUJ      -0.524700
     11 C2          18.8300    40.1080    32.0790 c6         1 TUJ       0.192300
     12 O2          17.6670    40.6090    32.8050 os         1 TUJ      -0.533700
     13 O32         20.9660    42.4580    29.0710 o          1 TUJ      -0.734867
     14 S3          20.7420    42.7770    30.4880 s6         1 TUJ       1.502300
     15 O31         21.5980    42.0190    31.4120 o          1 TUJ      -0.734867
     16 O33         20.6580    44.2160    30.7780 o          1 TUJ      -0.734867
     17 S2          17.8650    41.2340    34.3130 s6         1 TUJ       1.520300
     18 O23         16.5260    41.1400    34.9150 o          1 TUJ      -0.732200
     19 O21         18.8770    40.3820    34.9560 o          1 TUJ      -0.732200
     20 O22         18.3150    42.6140    34.0780 o          1 TUJ      -0.732200
     21 O13         20.1110    36.0850    32.1160 o          1 TUJ      -0.733200
     22 S1          18.9120    36.2140    32.9570 s6         1 TUJ       1.510300
     23 O11         17.7030    35.6010    32.3870 o          1 TUJ      -0.733200
     24 O12         19.1360    35.8710    34.3700 o          1 TUJ      -0.733200
     25 S4          15.6010    41.7440    28.9630 s6         1 TUJ       1.504300
     26 O43         14.3610    42.0690    29.6830 o          1 TUJ      -0.739533
     27 O41         15.4540    40.6790    27.9600 o          1 TUJ      -0.739533
     28 O42         16.3420    42.9180    28.4790 o          1 TUJ      -0.739533
     29 H61         19.7560    38.4580    29.1590 h1         1 TUJ       0.008700
     30 H62         18.7470    38.7020    27.7360 h1         1 TUJ       0.008700
     31 H5          16.7010    38.7110    29.0940 h1         1 TUJ       0.088700
     32 H1          19.6420    38.2710    31.2680 h2         1 TUJ      -0.002300
     33 H4          18.0950    40.8630    28.7040 h1         1 TUJ       0.029700
     34 H3          19.9030    40.3400    30.2220 h1         1 TUJ       0.002700
     35 H2          19.7510    40.2830    32.6530 h1         1 TUJ       0.088700
     36 HO6         19.3800    36.4780    28.1070 ho         1 TUJ       0.454000
@<TRIPOS>BOND
     1     1     2 1   
     2     1    36 1   
     3     2     3 1   
     4     2    29 1   
     5     2    30 1   
     6     3     4 1   
     7     3     7 1   
     8     3    31 1   
     9     4     5 1   
    10     5     6 1   
    11     5    11 1   
    12     5    32 1   
    13     6    22 1   
    14     7     8 1   
    15     7     9 1   
    16     7    33 1   
    17     8    25 1   
    18     9    10 1   
    19     9    11 1   
    20     9    34 1   
    21    10    14 1   
    22    11    12 1   
    23    11    35 1   
    24    12    17 1   
    25    13    14 1   
    26    14    15 1   
    27    14    16 1   
    28    17    18 1   
    29    17    19 1   
    30    17    20 1   
    31    21    22 1   
    32    22    23 1   
    33    22    24 1   
    34    25    26 1   
    35    25    27 1   
    36    25    28 1   
@<TRIPOS>SUBSTRUCTURE
     1 TUJ         1 TEMP              0 ****  ****    0 ROOT
