@<TRIPOS>MOLECULE
TUJ
   36    36     1     0     0
SMALL
abcg2


@<TRIPOS>ATOM
      1 O6          18.3310    36.8550    28.6820 oh         1 TUJ      -0.689000
      2 C6          18.6030    38.2330    28.6560 c3         1 TUJ       0.115600
      3 C5          17.5840    38.9410    29.5480 c6         1 TUJ       0.157300
      4 O5          17.4810    38.3670    30.8360 os         1 TUJ      -0.429000
      5 C1          18.6110    38.5350    31.6430 c6         1 TUJ       0.425300
      6 O1          18.3490    37.8840    32.8430 os         1 TUJ      -0.529700
      7 C4          17.8580    40.4490    29.6190 c6         1 TUJ       0.204300
      8 O4          16.7130    41.1550    30.0640 os         1 TUJ      -0.503700
      9 C3          19.0120    40.7290    30.5820 c6         1 TUJ       0.220300
     10 O3          19.1410    42.1250    30.7530 os         1 TUJ      -0.524700
     11 C2          18.8660    40.0140    31.9220 c6         1 TUJ       0.192300
     12 O2          17.7960    40.5520    32.6620 os         1 TUJ      -0.533700
     13 O32         21.1680    42.4260    29.3580 o          1 TUJ      -0.734867
     14 S3          20.6650    42.7570    30.6940 s6         1 TUJ       1.502300
     15 O31         21.3990    42.1040    31.7810 o          1 TUJ      -0.734867
     16 O33         20.3790    44.1720    30.9090 o          1 TUJ      -0.734867
     17 S2          17.9800    41.0290    34.2360 s6         1 TUJ       1.520300
     18 O23         16.8560    40.3700    34.8970 o          1 TUJ      -0.732200
     19 O21         19.2990    40.5630    34.6690 o          1 TUJ      -0.732200
     20 O22         17.8570    42.4860    34.1670 o          1 TUJ      -0.732200
     21 O13         20.5280    36.7050    33.0090 o          1 TUJ      -0.733200
     22 S1          19.0960    36.4310    33.1510 s6         1 TUJ       1.510300
     23 O11         18.5710    35.4960    32.1570 o          1 TUJ      -0.733200
     24 O12         18.6450    36.2020    34.5190 o          1 TUJ      -0.733200
     25 S4          15.7290    41.8530    28.9400 s6         1 TUJ       1.504300
     26 O43         14.8440    42.6240    29.8070 o          1 TUJ      -0.739533
     27 O41         15.0820    40.7420    28.2350 o          1 TUJ      -0.739533
     28 O42         16.6040    42.6610    28.0850 o          1 TUJ      -0.739533
     29 H61         19.6340    38.4410    28.9710 h1         1 TUJ       0.008700
     30 H62         18.4990    38.6570    27.6490 h1         1 TUJ       0.008700
     31 H5          16.6010    38.7970    29.0950 h1         1 TUJ       0.088700
     32 H1          19.5090    38.1260    31.1550 h2         1 TUJ      -0.002300
     33 H4          18.1630    40.8000    28.6260 h1         1 TUJ       0.029700
     34 H3          19.9100    40.3110    30.1070 h1         1 TUJ       0.002700
     35 H2          19.8100    40.0980    32.4660 h1         1 TUJ       0.088700
     36 HO6         19.0090    36.4080    28.1680 ho         1 TUJ       0.454000
@<TRIPOS>BOND
     1     1     2 1   
     2     1    36 1   
     3     2     3 1   
     4     2    29 1   
     5     2    30 1   
     6     3     4 1   
     7     3     7 1   
     8     3    31 1   
     9     4     5 1   
    10     5     6 1   
    11     5    11 1   
    12     5    32 1   
    13     6    22 1   
    14     7     8 1   
    15     7     9 1   
    16     7    33 1   
    17     8    25 1   
    18     9    10 1   
    19     9    11 1   
    20     9    34 1   
    21    10    14 1   
    22    11    12 1   
    23    11    35 1   
    24    12    17 1   
    25    13    14 1   
    26    14    15 1   
    27    14    16 1   
    28    17    18 1   
    29    17    19 1   
    30    17    20 1   
    31    21    22 1   
    32    22    23 1   
    33    22    24 1   
    34    25    26 1   
    35    25    27 1   
    36    25    28 1   
@<TRIPOS>SUBSTRUCTURE
     1 TUJ         1 TEMP              0 ****  ****    0 ROOT
