@<TRIPOS>MOLECULE
TUK
   47    49     1     0     0
SMALL
No Charge or Current Charge


@<TRIPOS>ATOM
      1 C1           6.3880    -2.5570     3.3670 c5         1 TUK       0.206900
      2 C2           5.5320    -1.0580     4.9500 c          1 TUK       0.421700
      3 O2           4.8020    -0.2390     5.4980 o          1 TUK      -0.498000
      4 N3           5.3160    -1.5910     3.6950 n          1 TUK      -0.445800
      5 CA3          4.1550    -1.1830     2.8390 c3         1 TUK      -0.016000
      6 C            3.5960    -2.2120     1.8310 c          1 TUK       0.556900
      7 O            3.9130    -3.3980     1.7920 o          1 TUK      -0.500100
      8 CA2          6.7790    -1.7100     5.4490 ce         1 TUK       0.368300
      9 N2           7.3030    -2.5220     4.5700 n2         1 TUK      -0.545900
     10 CA1          7.1700    -2.2390     2.0390 c3         1 TUK       0.184500
     11 N            7.8510    -0.9210     2.1150 n8         1 TUK      -1.011200
     12 CB1          8.1900    -3.3280     1.6250 c3         1 TUK      -0.067400
     13 CG1          7.5520    -4.7100     1.3610 c3         1 TUK       0.057600
     14 CB2          7.4230    -1.3910     6.7930 c3         1 TUK      -0.022500
     15 CG2          7.0580    -0.0760     7.4360 cc         1 TUK      -0.141400
     16 CD1          6.2870     0.1280     8.5770 cd         1 TUK      -0.151100
     17 NE1          6.1930     1.5160     8.8450 na         1 TUK      -0.220700
     18 CE2          6.9200     2.1450     7.8520 ca         1 TUK      -0.043200
     19 CD2          7.4550     1.2290     6.9900 ca         1 TUK      -0.087800
     20 CZ2          7.1280     3.5210     7.6790 ca         1 TUK      -0.127000
     21 CH2          7.9110     3.9430     6.5830 ca         1 TUK      -0.090000
     22 CZ3          8.4640     2.9920     5.6920 ca         1 TUK      -0.138000
     23 CE3          8.2370     1.6130     5.8920 ca         1 TUK      -0.060000
     24 SD1          8.8230    -5.9390     0.8090 ss         1 TUK      -0.426000
     25 CE1          9.0330    -5.4380    -0.9610 c3         1 TUK       0.036900
     26 H1           5.9020    -3.5390     3.2930 h2         1 TUK       0.092700
     27 H2           4.4380    -0.2960     2.2600 h1         1 TUK       0.089700
     28 H3           3.3120    -0.8930     3.4790 h1         1 TUK       0.089700
     29 H4           2.8560    -1.8010     1.1090 h4         1 TUK      -0.004800
     30 H5           6.4280    -2.1730     1.2310 h1         1 TUK       0.060700
     31 H6           7.1540    -0.2210     2.3910 hn         1 TUK       0.411500
     32 H7           8.4760    -0.9490     2.9290 hn         1 TUK       0.411500
     33 H9           8.7050    -2.9960     0.7170 hc         1 TUK       0.067200
     34 H10          8.9560    -3.4310     2.4030 hc         1 TUK       0.067200
     35 H11          7.0910    -5.0860     2.2840 h1         1 TUK       0.066700
     36 H12          6.7690    -4.6270     0.5960 h1         1 TUK       0.066700
     37 H13          7.1980    -2.2070     7.4890 hc         1 TUK       0.074700
     38 H14          8.5120    -1.4120     6.6700 hc         1 TUK       0.074700
     39 H15          5.8020    -0.6090     9.2130 h4         1 TUK       0.210000
     40 H16          5.6930     1.9590     9.6110 hn         1 TUK       0.351000
     41 H17          6.6990     4.2440     8.3690 ha         1 TUK       0.113000
     42 H18          8.0900     5.0040     6.4230 ha         1 TUK       0.110000
     43 H19          9.0660     3.3250     4.8500 ha         1 TUK       0.111000
     44 H20          8.6580     0.8750     5.2140 ha         1 TUK       0.112000
     45 H21          9.7340    -6.1210    -1.4570 h1         1 TUK       0.060033
     46 H22          8.0670    -5.4800    -1.4790 h1         1 TUK       0.060033
     47 H23          9.4310    -4.4170    -1.0210 h1         1 TUK       0.060033
@<TRIPOS>BOND
     1     1     4 1   
     2     1     9 1   
     3     1    10 1   
     4     1    26 1   
     5     2     3 2   
     6     2     4 1   
     7     2     8 1   
     8     4     5 1   
     9     5     6 1   
    10     5    27 1   
    11     5    28 1   
    12     6     7 2   
    13     6    29 1   
    14     8     9 2   
    15     8    14 1   
    16    10    11 1   
    17    10    12 1   
    18    10    30 1   
    19    11    31 1   
    20    11    32 1   
    21    12    13 1   
    22    12    33 1   
    23    12    34 1   
    24    13    24 1   
    25    13    35 1   
    26    13    36 1   
    27    14    15 1   
    28    14    37 1   
    29    14    38 1   
    30    15    16 2   
    31    15    19 1   
    32    16    17 1   
    33    16    39 1   
    34    17    18 1   
    35    17    40 1   
    36    18    19 ar  
    37    18    20 ar  
    38    19    23 ar  
    39    20    21 ar  
    40    20    41 1   
    41    21    22 ar  
    42    21    42 1   
    43    22    23 ar  
    44    22    43 1   
    45    23    44 1   
    46    24    25 1   
    47    25    45 1   
    48    25    46 1   
    49    25    47 1   
@<TRIPOS>SUBSTRUCTURE
     1 TUK         1 TEMP              0 ****  ****    0 ROOT
