@<TRIPOS>MOLECULE
TUK
   47    49     1     0     0
SMALL
abcg2


@<TRIPOS>ATOM
      1 C1           6.5050    -2.1610     2.7420 c5         1 TUK       0.206900
      2 C2           6.1870     0.0290     3.3680 c          1 TUK       0.421700
      3 O2           5.7880     1.1730     3.4580 o          1 TUK      -0.498000
      4 N3           5.7140    -0.9590     2.5800 n          1 TUK      -0.445800
      5 CA3          4.5620    -0.8450     1.7380 c3         1 TUK      -0.016000
      6 C            3.3160    -1.4090     2.3870 c          1 TUK       0.556900
      7 O            2.3160    -1.6660     1.7740 o          1 TUK      -0.500100
      8 CA2          7.3240    -0.6260     4.0960 ce         1 TUK       0.368300
      9 N2           7.4660    -1.8420     3.7600 n2         1 TUK      -0.545900
     10 CA1          7.2180    -2.5790     1.4280 c3         1 TUK       0.184500
     11 N            7.9660    -1.5190     0.7960 n8         1 TUK      -1.011200
     12 CB1          8.1390    -3.7810     1.6430 c3         1 TUK      -0.067400
     13 CG1          7.4670    -4.9830     2.2890 c3         1 TUK       0.057600
     14 CB2          8.1390     0.0910     5.1100 c3         1 TUK      -0.022500
     15 CG2          7.3330     0.4370     6.3240 cc         1 TUK      -0.141400
     16 CD1          6.3130    -0.2830     6.8800 cd         1 TUK      -0.151100
     17 NE1          5.8440     0.3580     7.9930 na         1 TUK      -0.220700
     18 CE2          6.5510     1.5080     8.1860 ca         1 TUK      -0.043200
     19 CD2          7.5040     1.5940     7.1480 ca         1 TUK      -0.087800
     20 CZ2          6.4430     2.4860     9.1740 ca         1 TUK      -0.127000
     21 CH2          7.3110     3.5580     9.1060 ca         1 TUK      -0.090000
     22 CZ3          8.2660     3.6630     8.0810 ca         1 TUK      -0.138000
     23 CE3          8.3710     2.6910     7.1060 ca         1 TUK      -0.060000
     24 SD1          8.5370    -6.4470     2.3640 ss         1 TUK      -0.426000
     25 CE1          8.5690    -6.9370     0.6250 c3         1 TUK       0.036900
     26 H1           5.8730    -2.9860     3.0900 h2         1 TUK       0.092700
     27 H2           4.7260    -1.3280     0.7720 h1         1 TUK       0.089700
     28 H3           4.3810     0.2140     1.5290 h1         1 TUK       0.089700
     29 H4           3.3860    -1.5490     3.4820 h4         1 TUK      -0.004800
     30 H5           6.4250    -2.8840     0.7360 h1         1 TUK       0.060700
     31 H6           7.3700    -0.7450     0.5330 hn         1 TUK       0.411500
     32 H7           8.6790    -1.1510     1.4140 hn         1 TUK       0.411500
     33 H9           8.5260    -4.0570     0.6610 hc         1 TUK       0.067200
     34 H10          8.9980    -3.4810     2.2480 hc         1 TUK       0.067200
     35 H11          7.2040    -4.7810     3.3280 h1         1 TUK       0.066700
     36 H12          6.5430    -5.2500     1.7680 h1         1 TUK       0.066700
     37 H13          9.0090    -0.5180     5.3670 hc         1 TUK       0.074700
     38 H14          8.5220     1.0110     4.6580 hc         1 TUK       0.074700
     39 H15          5.8750    -1.2170     6.5640 h4         1 TUK       0.210000
     40 H16          5.0900     0.0280     8.5720 hn         1 TUK       0.351000
     41 H17          5.7070     2.4090     9.9640 ha         1 TUK       0.113000
     42 H18          7.2530     4.3350     9.8580 ha         1 TUK       0.110000
     43 H19          8.9290     4.5180     8.0620 ha         1 TUK       0.111000
     44 H20          9.1130     2.7810     6.3210 ha         1 TUK       0.112000
     45 H21          9.1490    -7.8560     0.5580 h1         1 TUK       0.060033
     46 H22          7.5630    -7.1340     0.2560 h1         1 TUK       0.060033
     47 H23          9.0440    -6.1850    -0.0030 h1         1 TUK       0.060033
@<TRIPOS>BOND
     1     1     4 1   
     2     1     9 1   
     3     1    10 1   
     4     1    26 1   
     5     2     3 2   
     6     2     4 1   
     7     2     8 1   
     8     4     5 1   
     9     5     6 1   
    10     5    27 1   
    11     5    28 1   
    12     6     7 2   
    13     6    29 1   
    14     8     9 2   
    15     8    14 1   
    16    10    11 1   
    17    10    12 1   
    18    10    30 1   
    19    11    31 1   
    20    11    32 1   
    21    12    13 1   
    22    12    33 1   
    23    12    34 1   
    24    13    24 1   
    25    13    35 1   
    26    13    36 1   
    27    14    15 1   
    28    14    37 1   
    29    14    38 1   
    30    15    16 2   
    31    15    19 1   
    32    16    17 1   
    33    16    39 1   
    34    17    18 1   
    35    17    40 1   
    36    18    19 ar  
    37    18    20 ar  
    38    19    23 ar  
    39    20    21 ar  
    40    20    41 1   
    41    21    22 ar  
    42    21    42 1   
    43    22    23 ar  
    44    22    43 1   
    45    23    44 1   
    46    24    25 1   
    47    25    45 1   
    48    25    46 1   
    49    25    47 1   
@<TRIPOS>SUBSTRUCTURE
     1 TUK         1 TEMP              0 ****  ****    0 ROOT
