@<TRIPOS>MOLECULE
TUL
   12    12     1     0     0
SMALL
bcc


@<TRIPOS>ATOM
      1 O4           2.3870    -1.4690     0.0080 o          1 TUL      -0.577500
      2 C4           1.5800    -0.5610     0.0090 c          1 TUL       0.714700
      3 C5           1.8850     0.8500     0.0100 cc         1 TUL      -0.306200
      4 C6           0.8780     1.7400     0.0110 cd         1 TUL       0.031600
      5 N1          -0.4240     1.3460     0.0110 ns         1 TUL      -0.405100
      6 C2          -0.8080     0.0490     0.0100 cs         1 TUL       0.574400
      7 S2          -2.4040    -0.4100     0.0090 s          1 TUL      -0.561400
      8 N3           0.2120    -0.8400     0.0100 ns         1 TUL      -0.539500
      9 H1           2.9140     1.1730     0.0090 ha         1 TUL       0.179000
     10 H3           1.0360     2.8080     0.0110 h4         1 TUL       0.164000
     11 H4          -0.0510    -1.8170     0.0090 hn         1 TUL       0.360500
     12 H2          -1.1550     2.0430     0.0100 hn         1 TUL       0.366500
@<TRIPOS>BOND
     1     1     2 2   
     2     2     3 1   
     3     2     8 1   
     4     3     4 2   
     5     3     9 1   
     6     4     5 1   
     7     4    10 1   
     8     5     6 1   
     9     5    12 1   
    10     6     7 2   
    11     6     8 1   
    12     8    11 1   
@<TRIPOS>SUBSTRUCTURE
     1 TUL         1 TEMP              0 ****  ****    0 ROOT
