@<TRIPOS>MOLECULE
TUL
   12    12     1     0     0
SMALL
No Charge or Current Charge


@<TRIPOS>ATOM
      1 O4           2.4010    -1.4780     0.0090 o          1 TUL      -0.502000
      2 C4           1.5660    -0.5910     0.0090 c          1 TUL       0.572200
      3 C5           1.8730     0.8330     0.0100 cc         1 TUL      -0.356200
      4 C6           0.8810     1.7860     0.0100 cd         1 TUL      -0.018400
      5 N1          -0.4560     1.3880     0.0100 ns         1 TUL      -0.451600
      6 C2          -0.7940     0.0540     0.0100 cs         1 TUL       0.440400
      7 S2          -2.3820    -0.4410     0.0100 s          1 TUL      -0.561400
      8 N3           0.2310    -0.8380     0.0090 ns         1 TUL      -0.405500
      9 H1           2.9260     1.0890     0.0100 ha         1 TUL       0.229000
     10 H3           1.0520     2.8630     0.0110 h4         1 TUL       0.214000
     11 H4          -0.0250    -1.8130     0.0090 hn         1 TUL       0.360500
     12 H2          -1.2230     2.0590     0.0110 hn         1 TUL       0.480000
@<TRIPOS>BOND
     1     1     2 2   
     2     2     3 1   
     3     2     8 1   
     4     3     4 2   
     5     3     9 1   
     6     4     5 1   
     7     4    10 1   
     8     5     6 1   
     9     5    12 1   
    10     6     7 2   
    11     6     8 1   
    12     8    11 1   
@<TRIPOS>SUBSTRUCTURE
     1 TUL         1 TEMP              0 ****  ****    0 ROOT
