@<TRIPOS>MOLECULE
TUM
  117   120     1     0     0
SMALL
bcc


@<TRIPOS>ATOM
      1 C4           3.6400     1.8580     1.1250 ce         1 TUM      -0.263200
      2 C5           2.4240     1.9510     0.2840 c          1 TUM       0.681300
      3 C8          -0.0320     2.0870     0.4040 c6         1 TUM       0.080700
      4 C13         -2.9060     1.7430     0.4460 c6         1 TUM       0.182100
      5 C15         -5.4000     2.4220     0.4110 c3         1 TUM       0.144100
      6 C17         -6.6930     2.3030    -0.4070 c5         1 TUM       0.117100
      7 C20         -8.4440     1.4080     0.9090 c5         1 TUM       0.055100
      8 C22         -7.9360     2.7440     0.3630 c5         1 TUM       0.095100
      9 C26         -6.7670    -2.6060     1.1970 cc         1 TUM      -0.346200
     10 O6           2.4650     2.1110    -0.9330 o          1 TUM      -0.610100
     11 N7           1.2710     1.8730     0.9760 ns         1 TUM      -0.557900
     12 C9          -0.8870     2.9430     1.3330 c6         1 TUM       0.093100
     13 O10         -0.2580     4.1920     1.4820 oh         1 TUM      -0.584800
     14 C11         -2.3100     3.1060     0.7870 c6         1 TUM       0.081100
     15 O12         -2.3230     3.9140    -0.3640 oh         1 TUM      -0.584800
     16 C14         -4.2300     1.7690    -0.3120 c3         1 TUM      -0.111400
     17 O16         -5.1990     3.7910     0.6890 oh         1 TUM      -0.609800
     18 O18         -6.9370     0.9460    -0.7990 os         1 TUM      -0.407600
     19 C19         -8.1510     0.4920    -0.2740 c5         1 TUM       0.312500
     20 O21         -9.8050     1.3710     1.2160 oh         1 TUM      -0.570800
     21 O23         -8.8550     3.2910    -0.5490 oh         1 TUM      -0.583800
     22 N24         -8.0190    -0.9140     0.0750 n          1 TUM      -0.380000
     23 C25         -6.9670    -1.3270     0.8400 cd         1 TUM       0.059600
     24 C27         -7.7080    -3.6160     0.7720 c          1 TUM       0.729700
     25 O28         -7.6510    -4.8010     1.0370 o          1 TUM      -0.598500
     26 N29         -8.7390    -3.1140    -0.0060 ns         1 TUM      -0.605500
     27 C30         -8.9570    -1.8180    -0.3920 c          1 TUM       0.836500
     28 O31         -9.9010    -1.5030    -1.0840 o          1 TUM      -0.614500
     29 O32         -2.0230     1.0180    -0.3880 os         1 TUM      -0.409600
     30 C33         -0.7680     0.7670     0.1650 c6         1 TUM       0.351900
     31 O34         -0.0600     0.0090    -0.7500 os         1 TUM      -0.411600
     32 C35          0.0100    -1.3710    -0.5090 c6         1 TUM       0.331900
     33 O36         -1.2300    -1.9950    -0.5560 os         1 TUM      -0.412600
     34 C37         -1.9000    -1.9680    -1.8100 c6         1 TUM       0.117100
     35 C38         -3.2120    -2.6990    -1.6300 c3         1 TUM       0.148400
     36 O39         -4.0140    -1.9950    -0.7120 oh         1 TUM      -0.591800
     37 C40         -1.0210    -2.6260    -2.8780 c6         1 TUM       0.079100
     38 O41         -1.5980    -2.5140    -4.1610 oh         1 TUM      -0.597800
     39 C42          0.3390    -1.9380    -2.9320 c6         1 TUM       0.132100
     40 O43          1.2170    -2.5910    -3.8110 oh         1 TUM      -0.582800
     41 C44          0.9750    -1.9500    -1.5450 c6         1 TUM       0.098700
     42 N45          2.2300    -1.2460    -1.5240 ns         1 TUM      -0.563900
     43 C46          3.4310    -1.8480    -1.4440 c          1 TUM       0.678100
     44 O47          3.5730    -3.0540    -1.2960 o          1 TUM      -0.611100
     45 C48          4.6150    -0.9190    -1.5450 c3         1 TUM      -0.182100
     46 H1           3.5170     1.6320     2.1790 ha         1 TUM       0.126000
     47 H4           0.0900     2.5920    -0.5580 h1         1 TUM       0.126700
     48 H5          -3.0500     1.2070     1.3980 h1         1 TUM       0.034700
     49 H6          -5.5390     1.9310     1.3830 h1         1 TUM       0.054700
     50 H7          -6.5780     2.9090    -1.3140 h1         1 TUM       0.097700
     51 H8          -7.8280     1.1160     1.7700 h1         1 TUM       0.048700
     52 H9          -7.6970     3.4500     1.1660 h1         1 TUM       0.073700
     53 H11          1.3300     1.7590     1.9770 hn         1 TUM       0.308500
     54 H12         -0.9670     2.4250     2.3010 h1         1 TUM       0.030700
     55 H13         -0.6240     4.6320     2.2560 ho         1 TUM       0.409000
     56 H14         -2.9130     3.5490     1.5910 h1         1 TUM       0.045700
     57 H15         -1.7970     4.7000    -0.1740 ho         1 TUM       0.421000
     58 H16         -4.0850     2.2550    -1.2840 hc         1 TUM       0.088700
     59 H17         -4.4840     0.7290    -0.5260 hc         1 TUM       0.088700
     60 H18         -4.6920     4.1830    -0.0320 ho         1 TUM       0.428000
     61 H19         -8.9570     0.5570    -1.0070 h2         1 TUM       0.126700
     62 H20         -9.9310     1.6960     2.1140 ho         1 TUM       0.417000
     63 H21         -9.7280     3.2750    -0.1380 ho         1 TUM       0.424000
     64 H22         -6.2740    -0.5560     1.1460 h4         1 TUM       0.160000
     65 H23         -9.4260    -3.7810    -0.3360 hn         1 TUM       0.344500
     66 H24         -0.8670     0.2290     1.1260 h2         1 TUM       0.022700
     67 H25          0.3920    -1.5570     0.5020 h2         1 TUM       0.077700
     68 H26         -2.1100    -0.9340    -2.1090 h1         1 TUM       0.090700
     69 H27         -3.7000    -2.7750    -2.6090 h1         1 TUM       0.026200
     70 H28         -3.0110    -3.7250    -1.2900 h1         1 TUM       0.026200
     71 H29         -4.8620    -2.4460    -0.6490 ho         1 TUM       0.404000
     72 H30         -0.8610    -3.6810    -2.6080 h1         1 TUM       0.052700
     73 H31         -2.1430    -3.2870    -4.3310 ho         1 TUM       0.410000
     74 H32          0.1810    -0.8940    -3.2450 h1         1 TUM       0.064700
     75 H33          0.8170    -2.5770    -4.6880 ho         1 TUM       0.417000
     76 H34          1.1700    -2.9860    -1.2620 h1         1 TUM       0.104700
     77 H35          2.2020    -0.2440    -1.6490 hn         1 TUM       0.340500
     78 H36          5.2430    -1.0260    -0.6610 hc         1 TUM       0.061033
     79 H37          5.2190    -1.2030    -2.4070 hc         1 TUM       0.061033
     80 H38          4.3390     0.1280    -1.6450 hc         1 TUM       0.061033
     81 C1           4.8510     2.0930     0.6250 c2         1 TUM      -0.077200
     82 C2           6.1230     2.0730     1.3980 c3         1 TUM      -0.058200
     83 C3           7.1500     1.1080     0.8020 c3         1 TUM      -0.072400
     84 C6           8.5120     1.2140     1.4760 c3         1 TUM      -0.074400
     85 C7           9.5410     0.2550     0.8920 c3         1 TUM      -0.075400
     86 C10         10.9280     0.4160     1.5010 c3         1 TUM      -0.074400
     87 C12         11.9530    -0.5530     0.9230 c3         1 TUM      -0.075400
     88 C16         13.3580    -0.3460     1.4740 c3         1 TUM      -0.073400
     89 C18         14.3680    -1.3370     0.9040 c3         1 TUM      -0.072400
     90 C21         15.8210    -1.0810     1.3090 c3         1 TUM      -0.059700
     91 C23         16.0270    -1.1830     2.8170 c3         1 TUM      -0.086600
     92 C24         16.7520    -2.0430     0.5770 c3         1 TUM      -0.086600
     93 H2           4.9410     2.3320    -0.4320 ha         1 TUM       0.142000
     94 H3           6.5470     3.0840     1.3820 hc         1 TUM       0.052200
     95 H39          5.9350     1.8270     2.4460 hc         1 TUM       0.052200
     96 H40          6.7750     0.0830     0.8860 hc         1 TUM       0.044200
     97 H41          7.2610     1.3110    -0.2680 hc         1 TUM       0.044200
     98 H42          8.8770     2.2420     1.3800 hc         1 TUM       0.038200
     99 H43          8.4050     1.0270     2.5500 hc         1 TUM       0.038200
    100 H44          9.1980    -0.7760     1.0320 hc         1 TUM       0.039700
    101 H45          9.6050     0.4090    -0.1910 hc         1 TUM       0.039700
    102 H46         11.2730     1.4440     1.3420 hc         1 TUM       0.036700
    103 H47         10.8700     0.2800     2.5870 hc         1 TUM       0.036700
    104 H48         11.6310    -1.5810     1.1220 hc         1 TUM       0.038200
    105 H49         11.9730    -0.4490    -0.1680 hc         1 TUM       0.038200
    106 H50         13.6870     0.6750     1.2480 hc         1 TUM       0.037700
    107 H51         13.3310    -0.4230     2.5650 hc         1 TUM       0.037700
    108 H52         14.0870    -2.3540     1.2020 hc         1 TUM       0.037200
    109 H53         14.3010    -1.3150    -0.1900 hc         1 TUM       0.037200
    110 H54         16.0800    -0.0610     0.9990 hc         1 TUM       0.043700
    111 H55         17.0710    -1.0070     3.0830 hc         1 TUM       0.031867
    112 H56         15.4260    -0.4570     3.3650 hc         1 TUM       0.031867
    113 H57         15.7580    -2.1790     3.1800 hc         1 TUM       0.031867
    114 H58         16.6430    -1.9570    -0.5060 hc         1 TUM       0.031867
    115 H59         17.7980    -1.8510     0.8220 hc         1 TUM       0.031867
    116 H60         16.5350    -3.0790     0.8490 hc         1 TUM       0.031867
    117 H10         -5.9220    -2.8800     1.8100 ha         1 TUM       0.176000
@<TRIPOS>BOND
     1     1     2 1   
     2     1    46 1   
     3     1    81 2   
     4     2    10 2   
     5     2    11 1   
     6     3    11 1   
     7     3    12 1   
     8     3    30 1   
     9     3    47 1   
    10     4    14 1   
    11     4    16 1   
    12     4    29 1   
    13     4    48 1   
    14     5     6 1   
    15     5    16 1   
    16     5    17 1   
    17     5    49 1   
    18     6     8 1   
    19     6    18 1   
    20     6    50 1   
    21     7     8 1   
    22     7    19 1   
    23     7    20 1   
    24     7    51 1   
    25     8    21 1   
    26     8    52 1   
    27     9    23 2   
    28     9    24 1   
    29     9   117 1   
    30    11    53 1   
    31    12    13 1   
    32    12    14 1   
    33    12    54 1   
    34    13    55 1   
    35    14    15 1   
    36    14    56 1   
    37    15    57 1   
    38    16    58 1   
    39    16    59 1   
    40    17    60 1   
    41    18    19 1   
    42    19    22 1   
    43    19    61 1   
    44    20    62 1   
    45    21    63 1   
    46    22    23 1   
    47    22    27 1   
    48    23    64 1   
    49    24    25 2   
    50    24    26 1   
    51    26    27 1   
    52    26    65 1   
    53    27    28 2   
    54    29    30 1   
    55    30    31 1   
    56    30    66 1   
    57    31    32 1   
    58    32    33 1   
    59    32    41 1   
    60    32    67 1   
    61    33    34 1   
    62    34    35 1   
    63    34    37 1   
    64    34    68 1   
    65    35    36 1   
    66    35    69 1   
    67    35    70 1   
    68    36    71 1   
    69    37    38 1   
    70    37    39 1   
    71    37    72 1   
    72    38    73 1   
    73    39    40 1   
    74    39    41 1   
    75    39    74 1   
    76    40    75 1   
    77    41    42 1   
    78    41    76 1   
    79    42    43 1   
    80    42    77 1   
    81    43    44 2   
    82    43    45 1   
    83    45    78 1   
    84    45    79 1   
    85    45    80 1   
    86    81    82 1   
    87    81    93 1   
    88    82    83 1   
    89    82    94 1   
    90    82    95 1   
    91    83    84 1   
    92    83    96 1   
    93    83    97 1   
    94    84    85 1   
    95    84    98 1   
    96    84    99 1   
    97    85    86 1   
    98    85   100 1   
    99    85   101 1   
   100    86    87 1   
   101    86   102 1   
   102    86   103 1   
   103    87    88 1   
   104    87   104 1   
   105    87   105 1   
   106    88    89 1   
   107    88   106 1   
   108    88   107 1   
   109    89    90 1   
   110    89   108 1   
   111    89   109 1   
   112    90    91 1   
   113    90    92 1   
   114    90   110 1   
   115    91   111 1   
   116    91   112 1   
   117    91   113 1   
   118    92   114 1   
   119    92   115 1   
   120    92   116 1   
@<TRIPOS>SUBSTRUCTURE
     1 TUM         1 TEMP              0 ****  ****    0 ROOT
