@<TRIPOS>MOLECULE
TUM
  117   120     1     0     0
SMALL
No Charge or Current Charge


@<TRIPOS>ATOM
      1 C4           3.6300     2.4060     0.4460 ce         1 TUM      -0.313200
      2 C5           2.3530     2.4930    -0.3040 c          1 TUM       0.614300
      3 C8          -0.1650     2.3860    -0.0140 c6         1 TUM       0.080700
      4 C13         -3.0000     1.5360    -0.0290 c6         1 TUM       0.205300
      5 C15         -5.5710     2.1540     0.0610 c3         1 TUM       0.167300
      6 C17         -6.9780     1.7290    -0.4720 c5         1 TUM       0.140300
      7 C20         -8.3480     1.2120     1.4370 c5         1 TUM       0.078300
      8 C22         -8.1850     2.3100     0.3510 c5         1 TUM       0.118300
      9 C26         -6.2740    -2.4600     2.6690 cc         1 TUM      -0.396200
     10 O6           2.2950     2.7800    -1.4890 o          1 TUM      -0.610100
     11 N7           1.2360     2.2970     0.4670 ns         1 TUM      -0.490900
     12 C9          -1.1190     2.8440     1.1340 c6         1 TUM       0.116300
     13 O10         -0.7370     4.1440     1.6240 oh         1 TUM      -0.647000
     14 C11         -2.6070     2.8870     0.6670 c6         1 TUM       0.104300
     15 O12         -2.7940     4.0240    -0.1970 oh         1 TUM      -0.707000
     16 C14         -4.3900     1.5450    -0.7370 c3         1 TUM      -0.111400
     17 O16         -5.4540     3.5860     0.0110 oh         1 TUM      -0.732000
     18 O18         -7.1020     0.2800    -0.3790 os         1 TUM      -0.454000
     19 C19         -8.1880    -0.0440     0.5170 c5         1 TUM       0.335700
     20 O21         -9.6240     1.3230     2.1030 oh         1 TUM      -0.693000
     21 O23         -9.3940     2.4200    -0.4160 oh         1 TUM      -0.706000
     22 N24         -7.8480    -1.2060     1.3800 n          1 TUM      -0.313000
     23 C25         -6.5530    -1.3740     1.8720 cd         1 TUM       0.009600
     24 C27         -7.2920    -3.4490     3.0090 c          1 TUM       0.587200
     25 O28         -7.0920    -4.4250     3.7090 o          1 TUM      -0.523000
     26 N29         -8.5070    -3.1840     2.4650 ns         1 TUM      -0.471500
     27 C30         -8.8630    -2.1380     1.6720 c          1 TUM       0.627000
     28 O31        -10.0050    -2.0360     1.2570 o          1 TUM      -0.539000
     29 O32         -2.0490     1.2060    -1.0600 os         1 TUM      -0.456000
     30 C33         -0.7090     1.0370    -0.5740 c6         1 TUM       0.398300
     31 O34          0.0910     0.5370    -1.6550 os         1 TUM      -0.458000
     32 C35          0.8750    -0.6270    -1.3330 c6         1 TUM       0.378300
     33 O36         -0.0080    -1.7420    -1.0790 os         1 TUM      -0.459000
     34 C37         -0.8530    -2.1280    -2.1970 c6         1 TUM       0.140300
     35 C38         -1.8030    -3.2750    -1.7150 c3         1 TUM       0.171600
     36 O39         -2.5800    -2.9220    -0.5540 oh         1 TUM      -0.714000
     37 C40          0.0380    -2.5440    -3.4090 c6         1 TUM       0.102300
     38 O41         -0.7460    -2.8780    -4.5780 oh         1 TUM      -0.720000
     39 C42          1.0140    -1.3770    -3.7500 c6         1 TUM       0.155300
     40 O43          1.8390    -1.7670    -4.8610 oh         1 TUM      -0.645000
     41 C44          1.8550    -0.9780    -2.4940 c6         1 TUM       0.098700
     42 N45          2.7940     0.1370    -2.7730 ns         1 TUM      -0.496900
     43 C46          4.0960    -0.0000    -3.1910 c          1 TUM       0.611100
     44 O47          4.6460    -1.0870    -3.2920 o          1 TUM      -0.611100
     45 C48          4.8110     1.3050    -3.5070 c3         1 TUM      -0.182100
     46 H1           3.5870     1.8970     1.4070 ha         1 TUM       0.176000
     47 H4          -0.2120     3.1240    -0.8270 h1         1 TUM       0.126700
     48 H5          -3.0000     0.7330     0.7240 h1         1 TUM       0.034700
     49 H6          -5.4910     1.8100     1.1020 h1         1 TUM       0.054700
     50 H7          -7.0490     2.0270    -1.5270 h1         1 TUM       0.097700
     51 H8          -7.5290     1.2740     2.1680 h1         1 TUM       0.048700
     52 H9          -7.9360     3.2800     0.8060 h1         1 TUM       0.073700
     53 H11          1.3950     2.1370     1.4540 hn         1 TUM       0.308500
     54 H12         -1.0410     2.1070     1.9480 h1         1 TUM       0.030700
     55 H13         -0.9000     4.1510     2.5940 ho         1 TUM       0.448000
     56 H14         -3.2310     3.0030     1.5660 h1         1 TUM       0.045700
     57 H15         -2.0940     4.6640     0.0900 ho         1 TUM       0.520000
     58 H16         -4.3140     2.0640    -1.7000 hc         1 TUM       0.088700
     59 H17         -4.6320     0.5060    -0.9890 hc         1 TUM       0.088700
     60 H18         -4.4800     3.7900    -0.1080 ho         1 TUM       0.527000
     61 H19         -9.1040    -0.2550    -0.0520 h2         1 TUM       0.126700
     62 H20         -9.6090     0.7210     2.8840 ho         1 TUM       0.516000
     63 H21        -10.1100     2.2630     0.2490 ho         1 TUM       0.523000
     64 H22         -5.8340    -0.6120     1.5790 h4         1 TUM       0.210000
     65 H23         -9.2370    -3.8450     2.6730 hn         1 TUM       0.344500
     66 H24         -0.7260     0.2980     0.2410 h2         1 TUM       0.022700
     67 H25          1.4700    -0.4260    -0.4280 h2         1 TUM       0.077700
     68 H26         -1.4830    -1.2740    -2.4860 h1         1 TUM       0.090700
     69 H27         -2.4750    -3.5390    -2.5420 h1         1 TUM       0.026200
     70 H28         -1.1880    -4.1590    -1.4990 h1         1 TUM       0.026200
     71 H29         -3.0780    -3.7290    -0.2870 ho         1 TUM       0.503000
     72 H30          0.6410    -3.4130    -3.1040 h1         1 TUM       0.052700
     73 H31         -1.0450    -3.8140    -4.4830 ho         1 TUM       0.509000
     74 H32          0.4070    -0.5060    -4.0410 h1         1 TUM       0.064700
     75 H33          1.2260    -2.2510    -5.4610 ho         1 TUM       0.456000
     76 H34          2.4400    -1.8530    -2.1750 h1         1 TUM       0.104700
     77 H35          2.4540     1.0900    -2.6630 hn         1 TUM       0.340500
     78 H36          4.8300     1.9210    -2.6040 hc         1 TUM       0.061033
     79 H37          5.8220     1.1480    -3.9000 hc         1 TUM       0.061033
     80 H38          4.1930     1.9030    -4.1860 hc         1 TUM       0.061033
     81 C1           4.7770     3.0060     0.0490 c2         1 TUM      -0.127200
     82 C2           6.0880     2.9680     0.8010 c3         1 TUM      -0.058200
     83 C3           6.9200     1.7180     0.4430 c3         1 TUM      -0.072400
     84 C6           8.2700     1.6530     1.1890 c3         1 TUM      -0.074400
     85 C7           9.0990     0.4010     0.8280 c3         1 TUM      -0.075400
     86 C10         10.4500     0.3340     1.5730 c3         1 TUM      -0.074400
     87 C12         11.2790    -0.9180     1.2110 c3         1 TUM      -0.075400
     88 C16         12.6300    -0.9840     1.9560 c3         1 TUM      -0.073400
     89 C18         13.4560    -2.2420     1.5950 c3         1 TUM      -0.072400
     90 C21         14.8700    -2.3010     2.2360 c3         1 TUM      -0.059700
     91 C23         14.8320    -2.3380     3.7830 c3         1 TUM      -0.086600
     92 C24         15.6780    -3.4960     1.6810 c3         1 TUM      -0.086600
     93 H2           4.8140     3.5720    -0.8850 ha         1 TUM       0.192000
     94 H3           6.6730     3.8680     0.5730 hc         1 TUM       0.052200
     95 H39          5.9030     2.9840     1.8830 hc         1 TUM       0.052200
     96 H40          6.3340     0.8200     0.6760 hc         1 TUM       0.044200
     97 H41          7.1030     1.7080    -0.6390 hc         1 TUM       0.044200
     98 H42          8.8550     2.5510     0.9560 hc         1 TUM       0.038200
     99 H43          8.0850     1.6620     2.2710 hc         1 TUM       0.038200
    100 H44          8.5140    -0.4980     1.0610 hc         1 TUM       0.039700
    101 H45          9.2830     0.3910    -0.2540 hc         1 TUM       0.039700
    102 H46         11.0350     1.2330     1.3390 hc         1 TUM       0.036700
    103 H47         10.2650     0.3440     2.6540 hc         1 TUM       0.036700
    104 H48         10.6940    -1.8170     1.4460 hc         1 TUM       0.038200
    105 H49         11.4620    -0.9280     0.1300 hc         1 TUM       0.038200
    106 H50         13.2160    -0.0870     1.7200 hc         1 TUM       0.037700
    107 H51         12.4360    -0.9670     3.0350 hc         1 TUM       0.037700
    108 H52         12.8910    -3.1380     1.8830 hc         1 TUM       0.037200
    109 H53         13.5650    -2.2800     0.5040 hc         1 TUM       0.037200
    110 H54         15.4060    -1.3880     1.9430 hc         1 TUM       0.043700
    111 H55         15.8460    -2.4260     4.1920 hc         1 TUM       0.031867
    112 H56         14.3930    -1.4210     4.1920 hc         1 TUM       0.031867
    113 H57         14.2440    -3.1920     4.1390 hc         1 TUM       0.031867
    114 H58         15.7580    -3.4380     0.5890 hc         1 TUM       0.031867
    115 H59         16.6950    -3.5020     2.0920 hc         1 TUM       0.031867
    116 H60         15.1970    -4.4470     1.9410 hc         1 TUM       0.031867
    117 H10         -5.2870    -2.6400     3.0790 ha         1 TUM       0.226000
@<TRIPOS>BOND
     1     1     2 1   
     2     1    46 1   
     3     1    81 2   
     4     2    10 2   
     5     2    11 1   
     6     3    11 1   
     7     3    12 1   
     8     3    30 1   
     9     3    47 1   
    10     4    14 1   
    11     4    16 1   
    12     4    29 1   
    13     4    48 1   
    14     5     6 1   
    15     5    16 1   
    16     5    17 1   
    17     5    49 1   
    18     6     8 1   
    19     6    18 1   
    20     6    50 1   
    21     7     8 1   
    22     7    19 1   
    23     7    20 1   
    24     7    51 1   
    25     8    21 1   
    26     8    52 1   
    27     9    23 2   
    28     9    24 1   
    29     9   117 1   
    30    11    53 1   
    31    12    13 1   
    32    12    14 1   
    33    12    54 1   
    34    13    55 1   
    35    14    15 1   
    36    14    56 1   
    37    15    57 1   
    38    16    58 1   
    39    16    59 1   
    40    17    60 1   
    41    18    19 1   
    42    19    22 1   
    43    19    61 1   
    44    20    62 1   
    45    21    63 1   
    46    22    23 1   
    47    22    27 1   
    48    23    64 1   
    49    24    25 2   
    50    24    26 1   
    51    26    27 1   
    52    26    65 1   
    53    27    28 2   
    54    29    30 1   
    55    30    31 1   
    56    30    66 1   
    57    31    32 1   
    58    32    33 1   
    59    32    41 1   
    60    32    67 1   
    61    33    34 1   
    62    34    35 1   
    63    34    37 1   
    64    34    68 1   
    65    35    36 1   
    66    35    69 1   
    67    35    70 1   
    68    36    71 1   
    69    37    38 1   
    70    37    39 1   
    71    37    72 1   
    72    38    73 1   
    73    39    40 1   
    74    39    41 1   
    75    39    74 1   
    76    40    75 1   
    77    41    42 1   
    78    41    76 1   
    79    42    43 1   
    80    42    77 1   
    81    43    44 2   
    82    43    45 1   
    83    45    78 1   
    84    45    79 1   
    85    45    80 1   
    86    81    82 1   
    87    81    93 1   
    88    82    83 1   
    89    82    94 1   
    90    82    95 1   
    91    83    84 1   
    92    83    96 1   
    93    83    97 1   
    94    84    85 1   
    95    84    98 1   
    96    84    99 1   
    97    85    86 1   
    98    85   100 1   
    99    85   101 1   
   100    86    87 1   
   101    86   102 1   
   102    86   103 1   
   103    87    88 1   
   104    87   104 1   
   105    87   105 1   
   106    88    89 1   
   107    88   106 1   
   108    88   107 1   
   109    89    90 1   
   110    89   108 1   
   111    89   109 1   
   112    90    91 1   
   113    90    92 1   
   114    90   110 1   
   115    91   111 1   
   116    91   112 1   
   117    91   113 1   
   118    92   114 1   
   119    92   115 1   
   120    92   116 1   
@<TRIPOS>SUBSTRUCTURE
     1 TUM         1 TEMP              0 ****  ****    0 ROOT
