@<TRIPOS>MOLECULE
TUN
   26    25     1     0     0
SMALL
bcc


@<TRIPOS>ATOM
      1 C2           2.7500    -1.5800     0.9530 c3         1 TUN      -0.091100
      2 C1           1.6760    -0.5140     0.9800 c3         1 TUN       0.198400
      3 O2           1.5420     0.0470    -0.3100 os         1 TUN      -0.573200
      4 P            0.2740     1.0610    -0.6350 p5         1 TUN       1.387700
      5 O3           0.1310     2.0700     0.4700 o          1 TUN      -0.829000
      6 N           -1.0770     0.0490    -0.5800 n3         1 TUN      -0.850700
      7 C3          -2.1730     0.2730     0.3440 c3         1 TUN       0.250800
      8 C4          -1.9460    -0.2200     1.7670 c3         1 TUN      -0.111100
      9 C5          -1.2210    -1.0240    -1.5400 c3         1 TUN       0.250800
     10 C6          -1.0770    -2.4230    -0.9540 c3         1 TUN      -0.111100
     11 OXT          0.5600     1.4960    -2.0460 o          1 TUN      -0.829000
     12 H21C         2.8670    -2.0160     1.9460 hc         1 TUN       0.019367
     13 H22C         2.4910    -2.3860     0.2640 hc         1 TUN       0.019367
     14 H23C         3.7160    -1.1710     0.6530 hc         1 TUN       0.019367
     15 H11C         0.7310    -0.9580     1.3100 h1         1 TUN       0.009700
     16 H12C         1.9350     0.2610     1.7110 h1         1 TUN       0.009700
     17 H31C        -2.4220     1.3370     0.3810 h1         1 TUN       0.023950
     18 H32C        -3.0550    -0.2250    -0.0700 h1         1 TUN       0.023950
     19 H51C        -2.1980    -0.9460    -2.0330 h1         1 TUN       0.023950
     20 H52C        -0.4810    -0.8880    -2.3310 h1         1 TUN       0.023950
     21 H41C        -2.8370    -0.0540     2.3750 hc         1 TUN       0.022200
     22 H42C        -1.7160    -1.2860     1.7920 hc         1 TUN       0.022200
     23 H43C        -1.1210     0.3190     2.2320 hc         1 TUN       0.022200
     24 H61C        -0.0920    -2.5590    -0.5070 hc         1 TUN       0.022200
     25 H62C        -1.8270    -2.6170    -0.1860 hc         1 TUN       0.022200
     26 H63C        -1.2020    -3.1780    -1.7330 hc         1 TUN       0.022200
@<TRIPOS>BOND
     1     1     2 1   
     2     1    12 1   
     3     1    13 1   
     4     1    14 1   
     5     2     3 1   
     6     2    15 1   
     7     2    16 1   
     8     3     4 1   
     9     4     5 1   
    10     4     6 1   
    11     4    11 1   
    12     6     7 1   
    13     6     9 1   
    14     7     8 1   
    15     7    17 1   
    16     7    18 1   
    17     8    21 1   
    18     8    22 1   
    19     8    23 1   
    20     9    10 1   
    21     9    19 1   
    22     9    20 1   
    23    10    24 1   
    24    10    25 1   
    25    10    26 1   
@<TRIPOS>SUBSTRUCTURE
     1 TUN         1 TEMP              0 ****  ****    0 ROOT
