@<TRIPOS>MOLECULE
TUN
   26    25     1     0     0
SMALL
No Charge or Current Charge


@<TRIPOS>ATOM
      1 C2           2.0500    -1.2510     1.2150 c3         1 TUN      -0.091100
      2 C1           2.6610    -0.0430     0.4700 c3         1 TUN       0.221600
      3 O2           1.7550     0.4970    -0.5060 os         1 TUN      -0.596400
      4 P            0.3180     1.1200    -0.1120 p5         1 TUN       1.387700
      5 O3           0.2880     1.8040     1.2120 o          1 TUN      -0.829000
      6 N           -0.6790    -0.2180    -0.0860 n3         1 TUN      -0.850700
      7 C3          -2.0730     0.0660     0.3220 c3         1 TUN       0.250800
      8 C4          -2.5610    -0.8110     1.4940 c3         1 TUN      -0.111100
      9 C5          -0.5910    -1.0920    -1.2800 c3         1 TUN       0.250800
     10 C6          -1.2370    -2.4870    -1.1380 c3         1 TUN      -0.111100
     11 OXT         -0.1850     1.9970    -1.2060 o          1 TUN      -0.829000
     12 H21C         2.8090    -1.7120     1.8570 hc         1 TUN       0.019367
     13 H22C         1.2150    -0.9490     1.8560 hc         1 TUN       0.019367
     14 H23C         1.7020    -2.0120     0.5070 hc         1 TUN       0.019367
     15 H11C         2.9420     0.7270     1.2010 h1         1 TUN       0.009700
     16 H12C         3.5820    -0.3710    -0.0290 h1         1 TUN       0.009700
     17 H31C        -2.1820     1.1110     0.6440 h1         1 TUN       0.023950
     18 H32C        -2.7590    -0.0580    -0.5280 h1         1 TUN       0.023950
     19 H51C        -1.0410    -0.5880    -2.1460 h1         1 TUN       0.023950
     20 H52C         0.4600    -1.2730    -1.5370 h1         1 TUN       0.023950
     21 H41C        -3.5850    -0.5330     1.7690 hc         1 TUN       0.022200
     22 H42C        -2.5570    -1.8750     1.2370 hc         1 TUN       0.022200
     23 H43C        -1.9210    -0.6660     2.3720 hc         1 TUN       0.022200
     24 H61C        -0.8490    -3.0060    -0.2540 hc         1 TUN       0.022200
     25 H62C        -2.3280    -2.4160    -1.0620 hc         1 TUN       0.022200
     26 H63C        -1.0050    -3.0960    -2.0190 hc         1 TUN       0.022200
@<TRIPOS>BOND
     1     1     2 1   
     2     1    12 1   
     3     1    13 1   
     4     1    14 1   
     5     2     3 1   
     6     2    15 1   
     7     2    16 1   
     8     3     4 1   
     9     4     5 1   
    10     4     6 1   
    11     4    11 1   
    12     6     7 1   
    13     6     9 1   
    14     7     8 1   
    15     7    17 1   
    16     7    18 1   
    17     8    21 1   
    18     8    22 1   
    19     8    23 1   
    20     9    10 1   
    21     9    19 1   
    22     9    20 1   
    23    10    24 1   
    24    10    25 1   
    25    10    26 1   
@<TRIPOS>SUBSTRUCTURE
     1 TUN         1 TEMP              0 ****  ****    0 ROOT
