@<TRIPOS>MOLECULE
TUO
   37    39     1     0     0
SMALL
abcg2


@<TRIPOS>ATOM
      1 CAE         -2.5580    -1.8000     0.8530 ca         1 TUO      -0.087000
      2 CAA         -2.9380    -3.1310     0.9370 ca         1 TUO      -0.109000
      3 CAB         -2.3700    -4.0750     0.0910 ca         1 TUO      -0.100000
      4 CAC         -1.4210    -3.6770    -0.8410 ca         1 TUO      -0.109000
      5 CAG         -1.0440    -2.3440    -0.9280 ca         1 TUO      -0.087000
      6 CAF         -1.6100    -1.3870    -0.0840 ca         1 TUO      -0.029800
      7 CAN         -1.1860     0.0140    -0.1640 cc         1 TUO       0.012600
      8 CAM          0.1670     0.4830    -0.1170 ca         1 TUO      -0.134800
      9 CAL          1.3990    -0.1600    -0.0130 ca         1 TUO       0.078000
     10 CAK          2.5360     0.6240     0.0190 ca         1 TUO      -0.310500
     11 SAJ          4.1000    -0.1820     0.1550 sy         1 TUO       1.125600
     12 OAS          5.0700     0.7950     0.6350 o          1 TUO      -0.546500
     13 OAD          3.9460    -1.4230     0.9020 o          1 TUO      -0.546500
     14 NAI          4.3810    -0.6370    -1.4110 n8         1 TUO      -0.999100
     15 CAT          2.4890     2.0270    -0.0450 ca         1 TUO      -0.004000
     16 CAU          1.2780     2.6770    -0.1350 ca         1 TUO      -0.152000
     17 CAV          0.1240     1.8950    -0.1580 ca         1 TUO       0.007800
     18 NAW         -1.1800     2.2590    -0.2050 na         1 TUO      -0.212700
     19 CAO         -1.9720     1.1370    -0.2200 cd         1 TUO      -0.148300
     20 CAP         -3.4520     1.2230    -0.3290 c          1 TUO       0.648300
     21 OAH         -4.0830     0.4250    -0.9940 o          1 TUO      -0.522100
     22 NAQ         -3.9810     2.2510     0.3620 ns         1 TUO      -0.416300
     23 NAR         -5.3430     2.4880     0.3410 n8         1 TUO      -0.717200
     24 HAE         -2.9910    -1.0780     1.5340 ha         1 TUO       0.112000
     25 HAA         -3.6730    -3.4320     1.6720 ha         1 TUO       0.113500
     26 HAB         -2.6640    -5.1140     0.1600 ha         1 TUO       0.113000
     27 HAC         -0.9740    -4.4040    -1.5070 ha         1 TUO       0.113500
     28 HAG         -0.3180    -2.0440    -1.6740 ha         1 TUO       0.112000
     29 HAL          1.4580    -1.2390     0.0450 ha         1 TUO       0.148000
     30 HNAI         4.6380     0.1480    -2.0020 hn         1 TUO       0.470500
     31 HNAA         5.0950    -1.3570    -1.4620 hn         1 TUO       0.470500
     32 HAT          3.4000     2.6080    -0.0130 ha         1 TUO       0.135000
     33 HAU          1.2300     3.7570    -0.1720 ha         1 TUO       0.121000
     34 HNAR        -5.7220     2.3320     1.2660 hn         1 TUO       0.399500
     35 HNAW        -1.5090     3.2010    -0.3470 hn         1 TUO       0.355000
     36 H13         -3.4040     2.7620     1.0160 hn         1 TUO       0.298500
     37 H14         -5.4980     3.4600     0.1070 hn         1 TUO       0.399500
@<TRIPOS>BOND
     1     1     2 ar  
     2     1     6 ar  
     3     1    24 1   
     4     2     3 ar  
     5     2    25 1   
     6     3     4 ar  
     7     3    26 1   
     8     4     5 ar  
     9     4    27 1   
    10     5     6 ar  
    11     5    28 1   
    12     6     7 1   
    13     7     8 1   
    14     7    19 2   
    15     8     9 ar  
    16     8    17 ar  
    17     9    10 ar  
    18     9    29 1   
    19    10    11 1   
    20    10    15 ar  
    21    11    12 2   
    22    11    13 2   
    23    11    14 1   
    24    14    30 1   
    25    14    31 1   
    26    15    16 ar  
    27    15    32 1   
    28    16    17 ar  
    29    16    33 1   
    30    17    18 1   
    31    18    19 1   
    32    18    35 1   
    33    19    20 1   
    34    20    21 2   
    35    20    22 1   
    36    22    23 1   
    37    22    36 1   
    38    23    34 1   
    39    23    37 1   
@<TRIPOS>SUBSTRUCTURE
     1 TUO         1 TEMP              0 ****  ****    0 ROOT
