@<TRIPOS>MOLECULE
TUO
   37    39     1     0     0
SMALL
No Charge or Current Charge


@<TRIPOS>ATOM
      1 CAE         -2.2500    -1.9480     1.1500 ca         1 TUO      -0.087000
      2 CAA         -2.6560    -3.2940     1.1340 ca         1 TUO      -0.109000
      3 CAB         -2.3970    -4.0940     0.0080 ca         1 TUO      -0.100000
      4 CAC         -1.7290    -3.5470    -1.1010 ca         1 TUO      -0.109000
      5 CAG         -1.3240    -2.2010    -1.0850 ca         1 TUO      -0.087000
      6 CAF         -1.5920    -1.3920     0.0350 ca         1 TUO      -0.029800
      7 CAN         -1.1360    -0.0050     0.0580 cc         1 TUO       0.012600
      8 CAM          0.2170     0.4510     0.0660 ca         1 TUO      -0.134800
      9 CAL          1.4210    -0.2650     0.0700 ca         1 TUO       0.078000
     10 CAK          2.6250     0.4770     0.0850 ca         1 TUO      -0.310500
     11 SAJ          4.1880    -0.3900     0.0890 sy         1 TUO       1.125600
     12 OAS          5.2560     0.5030     0.5320 o          1 TUO      -0.546500
     13 OAD          4.0210    -1.7500     0.6020 o          1 TUO      -0.546500
     14 NAI          4.4680    -0.5670    -1.5120 n8         1 TUO      -0.999100
     15 CAT          2.5880     1.8970     0.0990 ca         1 TUO      -0.004000
     16 CAU          1.3500     2.5740     0.0980 ca         1 TUO      -0.152000
     17 CAV          0.1750     1.8130     0.0820 ca         1 TUO       0.007800
     18 NAW         -1.1330     2.2720     0.0770 na         1 TUO      -0.212700
     19 CAO         -1.9740     1.1150     0.0440 cd         1 TUO      -0.148300
     20 CAP         -3.4740     1.0790    -0.0260 c          1 TUO       0.648300
     21 OAH         -4.1500     0.0620    -0.1070 o          1 TUO      -0.522100
     22 NAQ         -4.0620     2.3510    -0.0000 ns         1 TUO      -0.416300
     23 NAR         -5.5000     2.6170    -0.0610 n8         1 TUO      -0.717200
     24 HAE         -2.4460    -1.3350     2.0260 ha         1 TUO       0.112000
     25 HAA         -3.1680    -3.7170     1.9960 ha         1 TUO       0.113500
     26 HAB         -2.7100    -5.1360    -0.0040 ha         1 TUO       0.113000
     27 HAC         -1.5230    -4.1660    -1.9720 ha         1 TUO       0.113500
     28 HAG         -0.8030    -1.7830    -1.9430 ha         1 TUO       0.112000
     29 HAL          1.4190    -1.3540     0.0610 ha         1 TUO       0.148000
     30 HNAI         3.8930     0.1700    -1.9130 hn         1 TUO       0.470500
     31 HNAA         5.4150    -0.2040    -1.5830 hn         1 TUO       0.470500
     32 HAT          3.5110     2.4760     0.1140 ha         1 TUO       0.135000
     33 HAU          1.3130     3.6610     0.1090 ha         1 TUO       0.121000
     34 HNAR        -5.8280     3.1250     0.7750 hn         1 TUO       0.399500
     35 HNAW        -1.4180     3.2460     0.0710 hn         1 TUO       0.355000
     36 H13         -3.4230     3.1410     0.0730 hn         1 TUO       0.298500
     37 H14         -5.7430     3.2030    -0.8750 hn         1 TUO       0.399500
@<TRIPOS>BOND
     1     1     2 ar  
     2     1     6 ar  
     3     1    24 1   
     4     2     3 ar  
     5     2    25 1   
     6     3     4 ar  
     7     3    26 1   
     8     4     5 ar  
     9     4    27 1   
    10     5     6 ar  
    11     5    28 1   
    12     6     7 1   
    13     7     8 1   
    14     7    19 2   
    15     8     9 ar  
    16     8    17 ar  
    17     9    10 ar  
    18     9    29 1   
    19    10    11 1   
    20    10    15 ar  
    21    11    12 2   
    22    11    13 2   
    23    11    14 1   
    24    14    30 1   
    25    14    31 1   
    26    15    16 ar  
    27    15    32 1   
    28    16    17 ar  
    29    16    33 1   
    30    17    18 1   
    31    18    19 1   
    32    18    35 1   
    33    19    20 1   
    34    20    21 2   
    35    20    22 1   
    36    22    23 1   
    37    22    36 1   
    38    23    34 1   
    39    23    37 1   
@<TRIPOS>SUBSTRUCTURE
     1 TUO         1 TEMP              0 ****  ****    0 ROOT
