@<TRIPOS>MOLECULE
TUP
   23    23     1     0     0
SMALL
No Charge or Current Charge


@<TRIPOS>ATOM
      1 F3           8.5460    13.4360    12.3650 f          1 TUP      -0.252000
      2 C3           9.7750    13.1580    11.7180 c6         1 TUP       0.200300
      3 C2          10.2040    11.7010    12.0710 c6         1 TUP       0.129300
      4 O2           9.2710    10.7220    11.5490 oh         1 TUP      -0.685000
      5 C1          11.6490    11.4270    11.5390 c6         1 TUP       0.346300
      6 O1          11.6790    11.4090    10.1130 oh         1 TUP      -0.660000
      7 O5          12.5620    12.4450    11.9860 os         1 TUP      -0.468000
      8 C5          12.2290    13.8110    11.6080 c6         1 TUP       0.140300
      9 C6          13.3830    14.7420    12.1130 c3         1 TUP       0.162600
     10 O6          13.5740    14.7040    13.5430 oh         1 TUP      -0.716000
     11 C4          10.8320    14.2040    12.1860 c6         1 TUP       0.120300
     12 O4          10.4520    15.5420    11.7810 oh         1 TUP      -0.706000
     13 H3           9.6140    13.2520    10.6350 h1         1 TUP       0.093700
     14 H2          10.2390    11.6210    13.1680 h1         1 TUP       0.055700
     15 HO2          9.5520    10.5580    10.6160 ho         1 TUP       0.507000
     16 H1          11.9870    10.4520    11.9240 h2         1 TUP       0.062700
     17 HO1         12.6250    11.2930     9.8790 ho         1 TUP       0.454000
     18 H5          12.2010    13.8860    10.5110 h1         1 TUP       0.064700
     19 H61         14.3060    14.4300    11.6060 h1         1 TUP       0.031700
     20 H62         13.1740    15.7690    11.7860 h1         1 TUP       0.031700
     21 HO6         14.4050    15.1980    13.7350 ho         1 TUP       0.504000
     22 H4          10.8900    14.1470    13.2840 h1         1 TUP       0.068700
     23 HO4         10.7960    16.1620    12.4670 ho         1 TUP       0.512000
@<TRIPOS>BOND
     1     1     2 1   
     2     2     3 1   
     3     2    11 1   
     4     2    13 1   
     5     3     4 1   
     6     3     5 1   
     7     3    14 1   
     8     4    15 1   
     9     5     6 1   
    10     5     7 1   
    11     5    16 1   
    12     6    17 1   
    13     7     8 1   
    14     8     9 1   
    15     8    11 1   
    16     8    18 1   
    17     9    10 1   
    18     9    19 1   
    19     9    20 1   
    20    10    21 1   
    21    11    12 1   
    22    11    22 1   
    23    12    23 1   
@<TRIPOS>SUBSTRUCTURE
     1 TUP         1 TEMP              0 ****  ****    0 ROOT
