@<TRIPOS>MOLECULE
TUP
   23    23     1     0     0
SMALL
bcc


@<TRIPOS>ATOM
      1 F3           8.6450    13.3820    12.3980 f          1 TUP      -0.233300
      2 C3           9.8440    13.1920    11.7140 c6         1 TUP       0.181600
      3 C2          10.2940    11.7570    11.9080 c6         1 TUP       0.106100
      4 O2           9.3340    10.9080    11.3430 oh         1 TUP      -0.562800
      5 C1          11.6860    11.5590    11.2940 c6         1 TUP       0.299900
      6 O1          11.5750    11.6610     9.9140 oh         1 TUP      -0.597800
      7 O5          12.5860    12.4860    11.8390 os         1 TUP      -0.421600
      8 C5          12.2420    13.8440    11.6180 c6         1 TUP       0.117100
      9 C6          13.3650    14.7070    12.1490 c3         1 TUP       0.139400
     10 O6          13.4490    14.5800    13.5490 oh         1 TUP      -0.593800
     11 C4          10.8810    14.1540    12.2590 c6         1 TUP       0.097100
     12 O4          10.4710    15.4650    11.9590 oh         1 TUP      -0.583800
     13 H3           9.6490    13.4010    10.6560 h1         1 TUP       0.093700
     14 H2          10.4010    11.5800    12.9880 h1         1 TUP       0.055700
     15 HO2          9.5210    10.0050    11.6210 ho         1 TUP       0.408000
     16 H1          12.0810    10.5800    11.5910 h2         1 TUP       0.062700
     17 HO1         12.3920    11.3510     9.5090 ho         1 TUP       0.415000
     18 H5          12.1710    14.0550    10.5420 h1         1 TUP       0.064700
     19 H61         14.2960    14.4030    11.6550 h1         1 TUP       0.031700
     20 H62         13.1740    15.7420    11.8410 h1         1 TUP       0.031700
     21 HO6         14.1090    15.2020    13.8660 ho         1 TUP       0.405000
     22 H4          10.9540    13.9960    13.3420 h1         1 TUP       0.068700
     23 HO4         10.8230    16.0580    12.6280 ho         1 TUP       0.413000
@<TRIPOS>BOND
     1     1     2 1   
     2     2     3 1   
     3     2    11 1   
     4     2    13 1   
     5     3     4 1   
     6     3     5 1   
     7     3    14 1   
     8     4    15 1   
     9     5     6 1   
    10     5     7 1   
    11     5    16 1   
    12     6    17 1   
    13     7     8 1   
    14     8     9 1   
    15     8    11 1   
    16     8    18 1   
    17     9    10 1   
    18     9    19 1   
    19     9    20 1   
    20    10    21 1   
    21    11    12 1   
    22    11    22 1   
    23    12    23 1   
@<TRIPOS>SUBSTRUCTURE
     1 TUP         1 TEMP              0 ****  ****    0 ROOT
