@<TRIPOS>MOLECULE
TUQ
   52    55     1     0     0
SMALL
abcg2


@<TRIPOS>ATOM
      1 CL          -0.8240    -4.4780     1.3030 cl         1 TUQ      -0.195000
      2 C11         -1.3690    -2.9180     0.7830 ca         1 TUQ       0.064000
      3 C10         -0.4900    -2.0670     0.1440 ca         1 TUQ      -0.031000
      4 C12         -2.6790    -2.5330     1.0100 ca         1 TUQ      -0.039000
      5 C13         -3.1100    -1.2860     0.5950 ca         1 TUQ      -0.212000
      6 C14         -2.2440    -0.4060    -0.0560 ca         1 TUQ       0.206100
      7 O1          -2.5910     0.8000    -0.4980 os         1 TUQ      -0.318100
      8 C15         -3.8780     1.3570    -0.2190 c6         1 TUQ       0.179300
      9 C19         -4.0940     2.4880    -1.2090 c6         1 TUQ      -0.132400
     10 C18         -5.4260     3.1830    -0.9160 c6         1 TUQ       0.150800
     11 N4          -5.5560     3.6580     0.4510 n7         1 TUQ      -0.846400
     12 C17         -5.3060     2.5970     1.4100 c6         1 TUQ       0.150800
     13 C16         -3.9680     1.8800     1.2080 c6         1 TUQ      -0.132400
     14 C9          -0.9120    -0.8060    -0.2810 ca         1 TUQ      -0.179500
     15 C8           0.0460     0.0650    -0.9460 cc         1 TUQ       0.486500
     16 N3          -0.0930     1.2140    -1.5160 nd         1 TUQ      -0.339000
     17 N2           1.1460     1.5770    -1.9780 nd         1 TUQ      -0.376000
     18 O            1.3250    -0.3540    -1.0120 os         1 TUQ      -0.284000
     19 C7           1.9570     0.6320    -1.6660 cc         1 TUQ       0.426300
     20 C6           3.4150     0.5220    -1.9110 c3         1 TUQ      -0.009400
     21 C5           4.1910     0.3410    -0.6450 cc         1 TUQ      -0.226300
     22 C1           4.5720    -0.8680    -0.0290 cc         1 TUQ       0.280300
     23 C            4.2930    -2.2570    -0.4910 c3         1 TUQ      -0.120400
     24 C3           4.6800     1.3330     0.1820 cd         1 TUQ      -0.110300
     25 C4           4.5880     2.8120     0.0720 c3         1 TUQ      -0.036800
     26 N1           5.3090     0.6990     1.1900 na         1 TUQ       0.134800
     27 N            5.2480    -0.6300     1.0790 nd         1 TUQ      -0.523800
     28 C2           5.9330     1.2940     2.3460 c3         1 TUQ       0.070900
     29 H10          0.5280    -2.3890    -0.0240 ha         1 TUQ       0.144000
     30 H12         -3.3710    -3.1970     1.5110 ha         1 TUQ       0.130000
     31 H13         -4.1390    -1.0180     0.7850 ha         1 TUQ       0.127000
     32 H15         -4.6540     0.6000    -0.3880 h1         1 TUQ       0.045700
     33 H191        -3.2740     3.2080    -1.1230 hc         1 TUQ       0.063450
     34 H192        -4.0890     2.1040    -2.2320 hc         1 TUQ       0.063450
     35 H161        -3.8670     1.0750     1.9400 hc         1 TUQ       0.063450
     36 H162        -3.1480     2.5840     1.3810 hc         1 TUQ       0.063450
     37 H181        -5.5620     4.0220    -1.6000 h1         1 TUQ       0.055450
     38 H182        -6.2460     2.4840    -1.1120 h1         1 TUQ       0.055450
     39 H4          -4.8900     4.4070     0.6060 hn         1 TUQ       0.409000
     40 H171        -5.3520     3.0110     2.4190 h1         1 TUQ       0.055450
     41 H172        -6.1220     1.8700     1.3350 h1         1 TUQ       0.055450
     42 H61C         3.5980    -0.3130    -2.5940 hc         1 TUQ       0.076200
     43 H62C         3.7240     1.4250    -2.4390 hc         1 TUQ       0.076200
     44 HC1          4.4870    -2.3700    -1.5580 hc         1 TUQ       0.048033
     45 HC2          4.9110    -2.9770     0.0430 hc         1 TUQ       0.048033
     46 HC3          3.2480    -2.5300    -0.3260 hc         1 TUQ       0.048033
     47 H41C         4.0920     3.2540     0.9370 hc         1 TUQ       0.054700
     48 H42C         5.5730     3.2760    -0.0140 hc         1 TUQ       0.054700
     49 H43C         4.0160     3.0880    -0.8110 hc         1 TUQ       0.054700
     50 H21C         5.2370     1.3560     3.1830 h1         1 TUQ       0.056367
     51 H22C         6.7890     0.6920     2.6400 h1         1 TUQ       0.056367
     52 H23C         6.2800     2.2950     2.1050 h1         1 TUQ       0.056367
@<TRIPOS>BOND
     1     1     2 1   
     2     2     3 ar  
     3     2     4 ar  
     4     3    14 ar  
     5     3    29 1   
     6     4     5 ar  
     7     4    30 1   
     8     5     6 ar  
     9     5    31 1   
    10     6     7 1   
    11     6    14 ar  
    12     7     8 1   
    13     8     9 1   
    14     8    13 1   
    15     8    32 1   
    16     9    10 1   
    17     9    33 1   
    18     9    34 1   
    19    10    11 1   
    20    10    37 1   
    21    10    38 1   
    22    11    12 1   
    23    11    39 1   
    24    12    13 1   
    25    12    40 1   
    26    12    41 1   
    27    13    35 1   
    28    13    36 1   
    29    14    15 1   
    30    15    16 2   
    31    15    18 1   
    32    16    17 1   
    33    17    19 2   
    34    18    19 1   
    35    19    20 1   
    36    20    21 1   
    37    20    42 1   
    38    20    43 1   
    39    21    22 1   
    40    21    24 2   
    41    22    23 1   
    42    22    27 2   
    43    23    44 1   
    44    23    45 1   
    45    23    46 1   
    46    24    25 1   
    47    24    26 1   
    48    25    47 1   
    49    25    48 1   
    50    25    49 1   
    51    26    27 1   
    52    26    28 1   
    53    28    50 1   
    54    28    51 1   
    55    28    52 1   
@<TRIPOS>SUBSTRUCTURE
     1 TUQ         1 TEMP              0 ****  ****    0 ROOT
