@<TRIPOS>MOLECULE
TUQ
   52    55     1     0     0
SMALL
No Charge or Current Charge


@<TRIPOS>ATOM
      1 Cl          -0.6240    -4.0460     2.2520 cl         1 TUQ      -0.195000
      2 C11         -1.2670    -2.6420     1.4090 ca         1 TUQ       0.064000
      3 C10         -0.3960    -1.7550     0.7620 ca         1 TUQ      -0.031000
      4 C12         -2.6480    -2.4130     1.3860 ca         1 TUQ      -0.039000
      5 C13         -3.1580    -1.2890     0.7170 ca         1 TUQ      -0.212000
      6 C14         -2.2890    -0.3780     0.0690 ca         1 TUQ       0.206100
      7 O1          -2.7760     0.7190    -0.6200 os         1 TUQ      -0.318100
      8 C15         -4.1060     1.2430    -0.4200 c6         1 TUQ       0.179300
      9 C19         -4.3860     2.3230    -1.4890 c6         1 TUQ      -0.132400
     10 C18         -5.7670     2.9780    -1.2660 c6         1 TUQ       0.150800
     11 N4          -5.8660     3.5410     0.1010 n7         1 TUQ      -0.846400
     12 C17         -5.6410     2.5280     1.1590 c6         1 TUQ       0.150800
     13 C16         -4.2580     1.8600     0.9950 c6         1 TUQ      -0.132400
     14 C9          -0.8910    -0.6200     0.0740 ca         1 TUQ      -0.179500
     15 C8           0.0700     0.3000    -0.5550 cc         1 TUQ       0.486500
     16 N3          -0.0950     1.5650    -0.9180 nd         1 TUQ      -0.339000
     17 N2           1.1070     1.9820    -1.4320 nd         1 TUQ      -0.376000
     18 O            1.3280    -0.1490    -0.7970 os         1 TUQ      -0.284000
     19 C7           1.9190     0.9430    -1.3410 cc         1 TUQ       0.426300
     20 C6           3.3660     0.8760    -1.7500 c3         1 TUQ      -0.009400
     21 C5           4.3060     0.4590    -0.6360 cc         1 TUQ      -0.226300
     22 C1           4.6990    -0.8650    -0.3410 cc         1 TUQ       0.280300
     23 C            4.2260    -2.0650    -1.1160 c3         1 TUQ      -0.120400
     24 C3           4.9470     1.2450     0.2770 cd         1 TUQ      -0.110300
     25 C4           4.9130     2.7420     0.4630 c3         1 TUQ      -0.036800
     26 N1           5.6890     0.3560     1.0660 na         1 TUQ       0.134800
     27 N            5.5280    -0.9630     0.6760 nd         1 TUQ      -0.523800
     28 C2           6.5610     0.7060     2.1980 c3         1 TUQ       0.070900
     29 H10          0.6720    -1.9560     0.8050 ha         1 TUQ       0.144000
     30 H12         -3.3220    -3.1060     1.8840 ha         1 TUQ       0.130000
     31 H13         -4.2340    -1.1500     0.7100 ha         1 TUQ       0.127000
     32 H15         -4.8410     0.4380    -0.5630 h1         1 TUQ       0.045700
     33 H191        -3.6010     3.0910    -1.4590 hc         1 TUQ       0.063450
     34 H192        -4.3490     1.8740    -2.4910 hc         1 TUQ       0.063450
     35 H161        -4.1360     1.0910     1.7690 hc         1 TUQ       0.063450
     36 H162        -3.4660     2.6010     1.1650 hc         1 TUQ       0.063450
     37 H181        -5.9230     3.7750    -2.0090 h1         1 TUQ       0.055450
     38 H182        -6.5590     2.2280    -1.4160 h1         1 TUQ       0.055450
     39 H4          -5.1550     4.2780     0.2010 hn         1 TUQ       0.409000
     40 H171        -5.7080     3.0030     2.1500 h1         1 TUQ       0.055450
     41 H172        -6.4290     1.7600     1.1080 h1         1 TUQ       0.055450
     42 H61C         3.4580     0.1910    -2.6000 hc         1 TUQ       0.076200
     43 H62C         3.6730     1.8540    -2.1370 hc         1 TUQ       0.076200
     44 HC1          4.5390    -1.9990    -2.1650 hc         1 TUQ       0.048033
     45 HC2          4.6400    -2.9930    -0.7040 hc         1 TUQ       0.048033
     46 HC3          3.1350    -2.1470    -1.0880 hc         1 TUQ       0.048033
     47 H41C         4.8440     3.0100     1.5240 hc         1 TUQ       0.054700
     48 H42C         5.8180     3.2080     0.0560 hc         1 TUQ       0.054700
     49 H43C         4.0490     3.1890    -0.0430 hc         1 TUQ       0.054700
     50 H21C         5.9500     1.0840     3.0250 h1         1 TUQ       0.056367
     51 H22C         7.1170    -0.1790     2.5320 h1         1 TUQ       0.056367
     52 H23C         7.2710     1.4810     1.8860 h1         1 TUQ       0.056367
@<TRIPOS>BOND
     1     1     2 1   
     2     2     3 ar  
     3     2     4 ar  
     4     3    14 ar  
     5     3    29 1   
     6     4     5 ar  
     7     4    30 1   
     8     5     6 ar  
     9     5    31 1   
    10     6     7 1   
    11     6    14 ar  
    12     7     8 1   
    13     8     9 1   
    14     8    13 1   
    15     8    32 1   
    16     9    10 1   
    17     9    33 1   
    18     9    34 1   
    19    10    11 1   
    20    10    37 1   
    21    10    38 1   
    22    11    12 1   
    23    11    39 1   
    24    12    13 1   
    25    12    40 1   
    26    12    41 1   
    27    13    35 1   
    28    13    36 1   
    29    14    15 1   
    30    15    16 2   
    31    15    18 1   
    32    16    17 1   
    33    17    19 2   
    34    18    19 1   
    35    19    20 1   
    36    20    21 1   
    37    20    42 1   
    38    20    43 1   
    39    21    22 1   
    40    21    24 2   
    41    22    23 1   
    42    22    27 2   
    43    23    44 1   
    44    23    45 1   
    45    23    46 1   
    46    24    25 1   
    47    24    26 1   
    48    25    47 1   
    49    25    48 1   
    50    25    49 1   
    51    26    27 1   
    52    26    28 1   
    53    28    50 1   
    54    28    51 1   
    55    28    52 1   
@<TRIPOS>SUBSTRUCTURE
     1 TUQ         1 TEMP              0 ****  ****    0 ROOT
