@<TRIPOS>MOLECULE
TUS
   58    62     1     0     0
SMALL
abcg2


@<TRIPOS>ATOM
      1 C10          2.0200   -28.6250    10.8260 c6         1 TUS       0.006400
      2 C11          3.7910   -30.5530    10.5950 c6         1 TUS       0.181300
      3 C12          5.2790   -30.8980    10.7160 c6         1 TUS      -0.061400
      4 C13          6.1840   -29.9770     9.9050 c5         1 TUS      -0.008000
      5 C14          5.8840   -28.5360    10.3390 c5         1 TUS      -0.071700
      6 C15          7.0230   -27.7280     9.7330 c5         1 TUS      -0.083400
      7 C16          8.2430   -28.6170     9.9710 c5         1 TUS       0.137300
      8 C19          1.4030   -28.6330     9.4060 c3         1 TUS      -0.072100
      9 C20          8.4380   -31.1480     9.4680 c          1 TUS       0.562100
     10 C21          8.3570   -32.5540    10.0260 c3         1 TUS       0.069600
     11 C22          8.6200   -29.2690    12.0800 c2         1 TUS       0.603600
     12 C17          7.7140   -30.0580    10.2420 c5         1 TUS      -0.003800
     13 C18          6.0120   -30.1800     8.3950 c3         1 TUS      -0.092100
     14 C23          9.1310   -29.0780    13.4590 c3         1 TUS      -0.120400
     15 C01          1.2010   -29.5470    11.6720 c2         1 TUS      -0.161200
     16 C02          0.5380   -29.1840    12.7700 ce         1 TUS      -0.285200
     17 C03          0.5600   -27.8000    13.2520 c          1 TUS       0.565500
     18 C04          1.3190   -26.8510    12.4450 ce         1 TUS      -0.302200
     19 C05          1.9820   -27.2070    11.3360 c2         1 TUS      -0.041400
     20 C06          2.7930   -26.2230    10.5600 c6         1 TUS      -0.049200
     21 C07          4.2560   -26.6620    10.5510 c6         1 TUS      -0.073400
     22 C08          4.4430   -28.1070    10.0950 c6         1 TUS      -0.036700
     23 C09          3.5280   -29.0600    10.8880 c6         1 TUS      -0.065700
     24 N01          7.9740   -30.2740    11.6560 n2         1 TUS      -0.663900
     25 O01         -0.0300   -27.4640    14.2700 o          1 TUS      -0.524100
     26 O02          3.3270   -30.9730     9.3270 oh         1 TUS      -0.658000
     27 O04          9.0790   -30.9180     8.4700 o          1 TUS      -0.522100
     28 O05          8.7610   -33.5290     9.1120 oh         1 TUS      -0.642000
     29 O06          8.8850   -28.2810    11.2130 os         1 TUS      -0.451600
     30 H1           3.2910   -31.1330    11.3800 h1         1 TUS       0.030700
     31 H2           5.4010   -31.9490    10.4390 hc         1 TUS       0.062200
     32 H3           5.5530   -30.8180    11.7710 hc         1 TUS       0.062200
     33 H4           6.0110   -28.5020    11.4320 hc         1 TUS       0.051700
     34 H5           7.1600   -26.7430    10.1800 hc         1 TUS       0.064200
     35 H6           6.8750   -27.5740     8.6620 hc         1 TUS       0.064200
     36 H7           8.9890   -28.5450     9.1800 h1         1 TUS       0.107700
     37 H8           0.4910   -28.0350     9.4040 hc         1 TUS       0.042700
     38 H9           2.0760   -28.2180     8.6600 hc         1 TUS       0.042700
     39 H10          1.1240   -29.6320     9.0800 hc         1 TUS       0.042700
     40 H11          7.3300   -32.7730    10.3250 h1         1 TUS       0.075200
     41 H12          8.9470   -32.5640    10.9530 h1         1 TUS       0.075200
     42 H13          5.0300   -29.8720     8.0500 hc         1 TUS       0.048033
     43 H14          6.7490   -29.6260     7.8130 hc         1 TUS       0.048033
     44 H15          6.1190   -31.2350     8.1300 hc         1 TUS       0.048033
     45 H16         10.2160   -28.9770    13.4530 hc         1 TUS       0.067700
     46 H17          8.7200   -28.1680    13.8980 hc         1 TUS       0.067700
     47 H18          8.8590   -29.9260    14.0810 hc         1 TUS       0.067700
     48 H19          1.1300   -30.5790    11.3460 ha         1 TUS       0.172000
     49 H21         -0.0470   -29.9040    13.3310 ha         1 TUS       0.200000
     50 H23          1.3320   -25.8190    12.7790 ha         1 TUS       0.199000
     51 H24          2.7000   -25.2280    10.9960 hc         1 TUS       0.056200
     52 H25          2.4210   -26.1530     9.5330 hc         1 TUS       0.056200
     53 H26          4.6550   -26.5500    11.5650 hc         1 TUS       0.046700
     54 H27          4.8300   -25.9890     9.9100 hc         1 TUS       0.046700
     55 H28          4.2090   -28.1670     9.0260 hc         1 TUS       0.066700
     56 H29          3.8100   -28.9420    11.9440 hc         1 TUS       0.056700
     57 H30          2.4060   -31.2370     9.4000 ho         1 TUS       0.440000
     58 H31          9.6370   -33.3000     8.7860 ho         1 TUS       0.454000
@<TRIPOS>BOND
     1     1     8 1   
     2     1    15 1   
     3     1    19 1   
     4     1    23 1   
     5     2     3 1   
     6     2    23 1   
     7     2    26 1   
     8     2    30 1   
     9     3     4 1   
    10     3    31 1   
    11     3    32 1   
    12     4     5 1   
    13     4    12 1   
    14     4    13 1   
    15     5     6 1   
    16     5    22 1   
    17     5    33 1   
    18     6     7 1   
    19     6    34 1   
    20     6    35 1   
    21     7    12 1   
    22     7    29 1   
    23     7    36 1   
    24     8    37 1   
    25     8    38 1   
    26     8    39 1   
    27     9    10 1   
    28     9    12 1   
    29     9    27 2   
    30    10    28 1   
    31    10    40 1   
    32    10    41 1   
    33    11    14 1   
    34    11    24 2   
    35    11    29 1   
    36    12    24 1   
    37    13    42 1   
    38    13    43 1   
    39    13    44 1   
    40    14    45 1   
    41    14    46 1   
    42    14    47 1   
    43    15    16 2   
    44    15    48 1   
    45    16    17 1   
    46    16    49 1   
    47    17    18 1   
    48    17    25 2   
    49    18    19 2   
    50    18    50 1   
    51    19    20 1   
    52    20    21 1   
    53    20    51 1   
    54    20    52 1   
    55    21    22 1   
    56    21    53 1   
    57    21    54 1   
    58    22    23 1   
    59    22    55 1   
    60    23    56 1   
    61    26    57 1   
    62    28    58 1   
@<TRIPOS>SUBSTRUCTURE
     1 TUS         1 TEMP              0 ****  ****    0 ROOT
