@<TRIPOS>MOLECULE
TUS
   58    62     1     0     0
SMALL
No Charge or Current Charge


@<TRIPOS>ATOM
      1 C10          1.9980   -28.6670    10.8760 c6         1 TUS       0.006400
      2 C11          3.7970   -30.6310    10.5370 c6         1 TUS       0.181300
      3 C12          5.3080   -31.0090    10.6560 c6         1 TUS      -0.061400
      4 C13          6.2750   -30.0260     9.9060 c5         1 TUS      -0.008000
      5 C14          5.9540   -28.5720    10.3820 c5         1 TUS      -0.071700
      6 C15          7.0950   -27.7560     9.7110 c5         1 TUS      -0.083400
      7 C16          8.3570   -28.6540     9.9650 c5         1 TUS       0.137300
      8 C19          1.3270   -28.6960     9.4620 c3         1 TUS      -0.072100
      9 C20          8.6140   -31.1980     9.5040 c          1 TUS       0.562100
     10 C21          8.4270   -32.6660     9.9770 c3         1 TUS       0.069600
     11 C22          8.6590   -29.1460    12.1330 c2         1 TUS       0.603600
     12 C17          7.8200   -30.0930    10.3040 c5         1 TUS      -0.003800
     13 C18          6.1080   -30.2420     8.3560 c3         1 TUS      -0.092100
     14 C23          9.1240   -28.8160    13.5230 c3         1 TUS      -0.120400
     15 C01          1.1490   -29.5880    11.7630 c2         1 TUS      -0.161200
     16 C02          0.4110   -29.1520    12.8090 ce         1 TUS      -0.285200
     17 C03          0.3530   -27.7320    13.2250 c          1 TUS       0.565500
     18 C04          1.1820   -26.8080    12.4200 ce         1 TUS      -0.302200
     19 C05          1.9310   -27.2050    11.3650 c2         1 TUS      -0.041400
     20 C06          2.8090   -26.2200    10.6050 c6         1 TUS      -0.049200
     21 C07          4.2820   -26.6650    10.6620 c6         1 TUS      -0.073400
     22 C08          4.4770   -28.1240    10.1550 c6         1 TUS      -0.036700
     23 C09          3.5180   -29.1220    10.9110 c6         1 TUS      -0.065700
     24 N01          8.0230   -30.2100    11.7890 n2         1 TUS      -0.663900
     25 O01         -0.3230   -27.3520    14.1700 o          1 TUS      -0.524100
     26 O02          3.2990   -30.9900     9.2450 oh         1 TUS      -0.658000
     27 O04          9.3850   -30.9580     8.5760 o          1 TUS      -0.522100
     28 O05          8.3250   -33.6140     8.8800 oh         1 TUS      -0.642000
     29 O06          8.9680   -28.2070    11.1900 os         1 TUS      -0.451600
     30 H1           3.2760   -31.2510    11.2800 h1         1 TUS       0.030700
     31 H2           5.4520   -32.0350    10.2960 hc         1 TUS       0.062200
     32 H3           5.5550   -31.0310    11.7250 hc         1 TUS       0.062200
     33 H4           6.0650   -28.4970    11.4710 hc         1 TUS       0.051700
     34 H5           7.2090   -26.7590    10.1520 hc         1 TUS       0.064200
     35 H6           6.9170   -27.6020     8.6410 hc         1 TUS       0.064200
     36 H7           9.0810   -28.5950     9.1400 h1         1 TUS       0.107700
     37 H8           0.3910   -28.1240     9.4700 hc         1 TUS       0.042700
     38 H9           1.9630   -28.2610     8.6840 hc         1 TUS       0.042700
     39 H10          1.0560   -29.7080     9.1450 hc         1 TUS       0.042700
     40 H11          7.5360   -32.7150    10.6140 h1         1 TUS       0.075200
     41 H12          9.2850   -32.9020    10.6200 h1         1 TUS       0.075200
     42 H13          5.1620   -29.8540     7.9680 hc         1 TUS       0.048033
     43 H14          6.8960   -29.7500     7.7750 hc         1 TUS       0.048033
     44 H15          6.1480   -31.3070     8.0960 hc         1 TUS       0.048033
     45 H16         10.2130   -28.7050    13.5490 hc         1 TUS       0.067700
     46 H17          8.6760   -27.8770    13.8660 hc         1 TUS       0.067700
     47 H18          8.8450   -29.6040    14.2300 hc         1 TUS       0.067700
     48 H19          1.1310   -30.6470    11.4990 ha         1 TUS       0.172000
     49 H21         -0.1900   -29.8390    13.4010 ha         1 TUS       0.200000
     50 H23          1.1640   -25.7700    12.7430 ha         1 TUS       0.199000
     51 H24          2.7170   -25.2120    11.0310 hc         1 TUS       0.056200
     52 H25          2.4780   -26.1370     9.5620 hc         1 TUS       0.056200
     53 H26          4.6390   -26.5780    11.6980 hc         1 TUS       0.046700
     54 H27          4.8890   -25.9710    10.0650 hc         1 TUS       0.046700
     55 H28          4.2540   -28.1420     9.0810 hc         1 TUS       0.066700
     56 H29          3.7990   -29.0490    11.9710 hc         1 TUS       0.056700
     57 H30          2.3980   -30.6160     9.1830 ho         1 TUS       0.440000
     58 H31          9.0800   -33.4390     8.2710 ho         1 TUS       0.454000
@<TRIPOS>BOND
     1     1     8 1   
     2     1    15 1   
     3     1    19 1   
     4     1    23 1   
     5     2     3 1   
     6     2    23 1   
     7     2    26 1   
     8     2    30 1   
     9     3     4 1   
    10     3    31 1   
    11     3    32 1   
    12     4     5 1   
    13     4    12 1   
    14     4    13 1   
    15     5     6 1   
    16     5    22 1   
    17     5    33 1   
    18     6     7 1   
    19     6    34 1   
    20     6    35 1   
    21     7    12 1   
    22     7    29 1   
    23     7    36 1   
    24     8    37 1   
    25     8    38 1   
    26     8    39 1   
    27     9    10 1   
    28     9    12 1   
    29     9    27 2   
    30    10    28 1   
    31    10    40 1   
    32    10    41 1   
    33    11    14 1   
    34    11    24 2   
    35    11    29 1   
    36    12    24 1   
    37    13    42 1   
    38    13    43 1   
    39    13    44 1   
    40    14    45 1   
    41    14    46 1   
    42    14    47 1   
    43    15    16 2   
    44    15    48 1   
    45    16    17 1   
    46    16    49 1   
    47    17    18 1   
    48    17    25 2   
    49    18    19 2   
    50    18    50 1   
    51    19    20 1   
    52    20    21 1   
    53    20    51 1   
    54    20    52 1   
    55    21    22 1   
    56    21    53 1   
    57    21    54 1   
    58    22    23 1   
    59    22    55 1   
    60    23    56 1   
    61    26    57 1   
    62    28    58 1   
@<TRIPOS>SUBSTRUCTURE
     1 TUS         1 TEMP              0 ****  ****    0 ROOT
