@<TRIPOS>MOLECULE
TUT
   52    54     1     0     0
SMALL
No Charge or Current Charge


@<TRIPOS>ATOM
      1 C           -8.3430     2.0380     1.3640 c3         1 TUT       0.148900
      2 N           -2.3370     0.8580    -1.3760 n2         1 TUT      -0.760100
      3 O           -6.9990     1.5340     1.4570 os         1 TUT      -0.340100
      4 Cl           2.6560    -4.7760    -0.7870 cl         1 TUT      -0.197000
      5 C1          -6.4610     0.6920     0.5050 ca         1 TUT       0.144100
      6 N1          -0.7500    -0.6370    -0.4760 ns         1 TUT      -0.444400
      7 O1           0.5320     1.1820    -1.0050 o          1 TUT      -0.506100
      8 C2          -7.1860     0.2650    -0.6280 ca         1 TUT      -0.191000
      9 N2           5.8220     4.1370    -0.0910 n7         1 TUT      -0.845400
     10 O2           2.9230     1.0690     0.3770 os         1 TUT      -0.334100
     11 C3          -6.5830    -0.5930    -1.5640 ca         1 TUT      -0.070000
     12 C4          -5.2600    -1.0260    -1.3740 ca         1 TUT      -0.139000
     13 C5          -4.5300    -0.6050    -0.2470 ca         1 TUT      -0.063300
     14 C6          -3.0900    -1.0690    -0.0440 c3         1 TUT      -0.133400
     15 C7          -2.0440    -0.1710    -0.6770 c2         1 TUT       0.467900
     16 C8           0.4540     0.0160    -0.6420 c          1 TUT       0.635700
     17 C9           1.6740    -0.8460    -0.3950 ca         1 TUT      -0.195600
     18 C10          1.6210    -2.2390    -0.6560 ca         1 TUT      -0.049000
     19 C11          2.7450    -3.0520    -0.4480 ca         1 TUT       0.071000
     20 C12          3.9380    -2.4940     0.0260 ca         1 TUT      -0.047000
     21 C13          4.0090    -1.1170     0.2910 ca         1 TUT      -0.200000
     22 C14          2.8870    -0.2820     0.0750 ca         1 TUT       0.201100
     23 C15          4.1560     1.8000     0.5510 c6         1 TUT       0.182300
     24 C16          3.8300     3.2130     1.0850 c6         1 TUT      -0.134400
     25 C17          5.1120     4.0670     1.2080 c6         1 TUT       0.151300
     26 C18          6.1860     2.8020    -0.6210 c6         1 TUT       0.151300
     27 C19          4.9320     1.9160    -0.7870 c6         1 TUT      -0.134400
     28 C20         -5.1380     0.2550     0.6870 ca         1 TUT      -0.136000
     29 H           -8.4770     2.6280     0.4480 h1         1 TUT       0.042033
     30 HA          -9.0690     1.2150     1.3630 h1         1 TUT       0.042033
     31 HB          -8.5670     2.6860     2.2210 h1         1 TUT       0.042033
     32 HN          -3.3630     0.9550    -1.3850 hn         1 TUT       0.399400
     33 HN1         -0.6750    -1.5720    -0.1070 hn         1 TUT       0.316500
     34 H2          -8.2100     0.5840    -0.7990 ha         1 TUT       0.119000
     35 H3          -7.1410    -0.9230    -2.4380 ha         1 TUT       0.115000
     36 H4          -4.8030    -1.6890    -2.1050 ha         1 TUT       0.119000
     37 H6          -2.8850    -1.1550     1.0300 hc         1 TUT       0.064200
     38 H6A         -2.9790    -2.0850    -0.4430 hc         1 TUT       0.064200
     39 H10          0.7200    -2.7050    -1.0490 ha         1 TUT       0.133000
     40 H12          4.8050    -3.1290     0.1920 ha         1 TUT       0.130000
     41 H13          4.9450    -0.7240     0.6740 ha         1 TUT       0.127000
     42 H15          4.7760     1.2960     1.3050 h1         1 TUT       0.041700
     43 H16          3.1150     3.7110     0.4160 hc         1 TUT       0.063950
     44 H16A         3.3440     3.1370     2.0670 hc         1 TUT       0.063950
     45 H17          5.7760     3.6270     1.9690 h1         1 TUT       0.054700
     46 H17A         4.8510     5.0820     1.5440 h1         1 TUT       0.054700
     47 H18          6.6930     2.9130    -1.5920 h1         1 TUT       0.054700
     48 H18A         6.8940     2.3120     0.0660 h1         1 TUT       0.054700
     49 H19          5.2360     0.9240    -1.1460 hc         1 TUT       0.063950
     50 H19A         4.2780     2.3400    -1.5610 hc         1 TUT       0.063950
     51 H20         -4.5850     0.5890     1.5610 ha         1 TUT       0.130000
     52 HN2          5.2070     4.6000    -0.7720 hn         1 TUT       0.410000
@<TRIPOS>BOND
     1     1     3 1   
     2     1    29 1   
     3     1    30 1   
     4     1    31 1   
     5     2    15 2   
     6     2    32 1   
     7     3     5 1   
     8     4    19 1   
     9     5     8 ar  
    10     5    28 ar  
    11     6    15 1   
    12     6    16 1   
    13     6    33 1   
    14     7    16 2   
    15     8    11 ar  
    16     8    34 1   
    17     9    25 1   
    18     9    26 1   
    19     9    52 1   
    20    10    22 1   
    21    10    23 1   
    22    11    12 ar  
    23    11    35 1   
    24    12    13 ar  
    25    12    36 1   
    26    13    14 1   
    27    13    28 ar  
    28    14    15 1   
    29    14    37 1   
    30    14    38 1   
    31    16    17 1   
    32    17    18 ar  
    33    17    22 ar  
    34    18    19 ar  
    35    18    39 1   
    36    19    20 ar  
    37    20    21 ar  
    38    20    40 1   
    39    21    22 ar  
    40    21    41 1   
    41    23    24 1   
    42    23    27 1   
    43    23    42 1   
    44    24    25 1   
    45    24    43 1   
    46    24    44 1   
    47    25    45 1   
    48    25    46 1   
    49    26    27 1   
    50    26    47 1   
    51    26    48 1   
    52    27    49 1   
    53    27    50 1   
    54    28    51 1   
@<TRIPOS>SUBSTRUCTURE
     1 TUT         1 TEMP              0 ****  ****    0 ROOT
