@<TRIPOS>MOLECULE
TUT
   52    54     1     0     0
SMALL
bcc


@<TRIPOS>ATOM
      1 C           -8.1360     2.1500     1.2180 c3         1 TUT       0.125700
      2 N           -2.2010     0.8740    -1.4180 n2         1 TUT      -0.760100
      3 O           -6.7960     1.7280     1.3770 os         1 TUT      -0.316900
      4 CL           2.7490    -4.7710    -1.0130 cl         1 TUT      -0.105400
      5 C1          -6.3020     0.8160     0.5200 ca         1 TUT       0.144100
      6 N1          -0.6500    -0.5470    -0.4330 ns         1 TUT      -0.511400
      7 O1           0.6160     0.8670    -1.7090 o          1 TUT      -0.506100
      8 C2          -7.0180     0.2580    -0.5360 ca         1 TUT      -0.209000
      9 N2           5.5770     4.1090     0.1100 n7         1 TUT      -0.790200
     10 O2           2.7720     0.9500     0.2400 os         1 TUT      -0.310900
     11 C3          -6.4010    -0.6800    -1.3570 ca         1 TUT      -0.088000
     12 C4          -5.0910    -1.0700    -1.1400 ca         1 TUT      -0.157000
     13 C5          -4.3720    -0.5160    -0.0810 ca         1 TUT      -0.063300
     14 C6          -2.9460    -0.9140     0.1540 c3         1 TUT      -0.133400
     15 C7          -1.9500    -0.0940    -0.6460 c2         1 TUT       0.467900
     16 C8           0.5190    -0.0910    -0.9810 c          1 TUT       0.702700
     17 C9           1.7000    -0.9370    -0.6110 ca         1 TUT      -0.195600
     18 C10          1.6700    -2.2980    -0.8870 ca         1 TUT      -0.067000
     19 C11          2.7860    -3.0790    -0.6400 ca         1 TUT      -0.020600
     20 C12          3.9270    -2.5140    -0.1010 ca         1 TUT      -0.065000
     21 C13          3.9570    -1.1590     0.1920 ca         1 TUT      -0.218000
     22 C14          2.8480    -0.3530    -0.0580 ca         1 TUT       0.201100
     23 C15          3.9550     1.7070     0.5020 c6         1 TUT       0.159100
     24 C16          3.5160     3.0510     1.0550 c6         1 TUT      -0.134400
     25 C17          4.7420     3.9380     1.2860 c6         1 TUT       0.151300
     26 C18          5.9690     2.8310    -0.4570 c6         1 TUT       0.151300
     27 C19          4.7920     1.8990    -0.7540 c6         1 TUT      -0.134400
     28 C20         -4.9790     0.4240     0.7380 ca         1 TUT      -0.154000
     29 H           -8.3040     2.6260     0.2490 h1         1 TUT       0.042033
     30 HA          -8.8410     1.3220     1.3320 h1         1 TUT       0.042033
     31 HB          -8.3250     2.8790     2.0020 h1         1 TUT       0.042033
     32 HN          -3.2030     1.0420    -1.4370 hn         1 TUT       0.399400
     33 HN1         -0.5580    -1.3090     0.2220 hn         1 TUT       0.316500
     34 H2          -8.0440     0.5360    -0.7340 ha         1 TUT       0.137000
     35 H3          -6.9640    -1.1120    -2.1740 ha         1 TUT       0.133000
     36 H4          -4.6260    -1.8060    -1.7850 ha         1 TUT       0.137000
     37 H6          -2.6900    -0.8250     1.2140 hc         1 TUT       0.064200
     38 H6A         -2.8050    -1.9670    -0.1050 hc         1 TUT       0.064200
     39 H10          0.7840    -2.7420    -1.3230 ha         1 TUT       0.151000
     40 H12          4.8010    -3.1190     0.1000 ha         1 TUT       0.148000
     41 H13          4.8600    -0.7540     0.6260 ha         1 TUT       0.145000
     42 H15          4.5550     1.2050     1.2720 h1         1 TUT       0.041700
     43 H16          2.8380     3.5370     0.3460 hc         1 TUT       0.063950
     44 H16A         2.9720     2.9180     1.9940 hc         1 TUT       0.063950
     45 H17          5.3580     3.4990     2.0790 h1         1 TUT       0.054700
     46 H17A         4.4260     4.9180     1.6440 h1         1 TUT       0.054700
     47 H18          6.5380     3.0060    -1.3710 h1         1 TUT       0.054700
     48 H18A         6.6510     2.3400     0.2460 h1         1 TUT       0.054700
     49 H19          5.1660     0.9460    -1.1380 hc         1 TUT       0.063950
     50 H19A         4.1640     2.3400    -1.5350 hc         1 TUT       0.063950
     51 H20         -4.4280     0.8600     1.5640 ha         1 TUT       0.148000
     52 HN2          5.0600     4.6330    -0.5880 hn         1 TUT       0.354800
@<TRIPOS>BOND
     1     1     3 1   
     2     1    29 1   
     3     1    30 1   
     4     1    31 1   
     5     2    15 2   
     6     2    32 1   
     7     3     5 1   
     8     4    19 1   
     9     5     8 ar  
    10     5    28 ar  
    11     6    15 1   
    12     6    16 1   
    13     6    33 1   
    14     7    16 2   
    15     8    11 ar  
    16     8    34 1   
    17     9    25 1   
    18     9    26 1   
    19     9    52 1   
    20    10    22 1   
    21    10    23 1   
    22    11    12 ar  
    23    11    35 1   
    24    12    13 ar  
    25    12    36 1   
    26    13    14 1   
    27    13    28 ar  
    28    14    15 1   
    29    14    37 1   
    30    14    38 1   
    31    16    17 1   
    32    17    18 ar  
    33    17    22 ar  
    34    18    19 ar  
    35    18    39 1   
    36    19    20 ar  
    37    20    21 ar  
    38    20    40 1   
    39    21    22 ar  
    40    21    41 1   
    41    23    24 1   
    42    23    27 1   
    43    23    42 1   
    44    24    25 1   
    45    24    43 1   
    46    24    44 1   
    47    25    45 1   
    48    25    46 1   
    49    26    27 1   
    50    26    47 1   
    51    26    48 1   
    52    27    49 1   
    53    27    50 1   
    54    28    51 1   
@<TRIPOS>SUBSTRUCTURE
     1 TUT         1 TEMP              0 ****  ****    0 ROOT
