@<TRIPOS>MOLECULE
TUU
   37    39     1     0     0
SMALL
abcg2


@<TRIPOS>ATOM
      1 C10         20.2330     1.4760    61.5420 ca         1 TUU       0.410900
      2 C15         26.8460     4.0820    60.8380 c3         1 TUU      -0.083400
      3 C03         22.4970     2.0770    60.1500 ca         1 TUU      -0.316500
      4 C04         21.8200     0.8760    59.7890 ca         1 TUU       0.072000
      5 C05         20.6390     0.5780    60.5260 ca         1 TUU      -0.116000
      6 C06         19.9010    -0.5930    60.2380 ca         1 TUU      -0.076000
      7 C07         20.3210    -1.4450    59.2510 ca         1 TUU      -0.113000
      8 C08         21.4910    -1.1520    58.5180 ca         1 TUU      -0.070000
      9 C09         22.2270    -0.0210    58.7750 ca         1 TUU      -0.110000
     10 C12         22.0060     2.8650    61.1590 ca         1 TUU       0.410900
     11 C14         25.3610     3.8950    61.1630 c3         1 TUU       0.246800
     12 C16         27.1180     5.0270    59.6630 c3         1 TUU       0.169800
     13 C18         25.0560     6.0800    58.8580 c3         1 TUU       0.148800
     14 C19         23.9870     5.2520    59.5570 c3         1 TUU       0.239800
     15 N11         20.8790     2.5740    61.8580 nb         1 TUU      -0.685000
     16 N13         24.4890     3.9340    59.9770 n3         1 TUU      -0.821500
     17 N17         26.2700     6.2260    59.6620 n7         1 TUU      -0.872400
     18 O01         23.5850     2.8650    57.9260 o          1 TUU      -0.548500
     19 O20         24.9670     1.5470    59.5180 o          1 TUU      -0.548500
     20 S02         23.9750     2.5740    59.2880 sy         1 TUU       1.227600
     21 H1          19.3310     1.2520    62.1050 h4         1 TUU       0.021100
     22 H3          27.3310     4.4610    61.7420 hc         1 TUU       0.054700
     23 H4          19.0060    -0.7990    60.8110 ha         1 TUU       0.117000
     24 H5          19.7600    -2.3430    59.0270 ha         1 TUU       0.120000
     25 H6          21.8130    -1.8320    57.7400 ha         1 TUU       0.121000
     26 H7          23.1190     0.1790    58.2010 ha         1 TUU       0.134000
     27 H8          22.5130     3.7750    61.4460 h4         1 TUU       0.022100
     28 H9          25.0140     4.6960    61.8150 h1         1 TUU       0.053200
     29 H10         25.2060     2.9570    61.6930 h1         1 TUU       0.053200
     30 H11         26.9910     4.4730    58.7230 h1         1 TUU       0.033700
     31 H12         28.1620     5.3410    59.7070 h1         1 TUU       0.033700
     32 H13         24.6400     7.0720    58.6730 h1         1 TUU       0.042700
     33 H14         25.2720     5.6180    57.8830 h1         1 TUU       0.042700
     34 H15         23.6370     5.7690    60.4530 h1         1 TUU       0.057700
     35 H16         23.1390     5.1130    58.8900 h1         1 TUU       0.057700
     36 H17         26.8020     7.0040    59.2940 hn         1 TUU       0.414000
     37 H2          27.2990     3.1150    60.6090 hc         1 TUU       0.054700
@<TRIPOS>BOND
     1     1     5 ar  
     2     1    15 ar  
     3     1    21 1   
     4     2    11 1   
     5     2    12 1   
     6     2    22 1   
     7     2    37 1   
     8     3     4 ar  
     9     3    10 ar  
    10     3    20 1   
    11     4     5 ar  
    12     4     9 ar  
    13     5     6 ar  
    14     6     7 ar  
    15     6    23 1   
    16     7     8 ar  
    17     7    24 1   
    18     8     9 ar  
    19     8    25 1   
    20     9    26 1   
    21    10    15 ar  
    22    10    27 1   
    23    11    16 1   
    24    11    28 1   
    25    11    29 1   
    26    12    17 1   
    27    12    30 1   
    28    12    31 1   
    29    13    14 1   
    30    13    17 1   
    31    13    32 1   
    32    13    33 1   
    33    14    16 1   
    34    14    34 1   
    35    14    35 1   
    36    16    20 1   
    37    17    36 1   
    38    18    20 2   
    39    19    20 2   
@<TRIPOS>SUBSTRUCTURE
     1 TUU         1 TEMP              0 ****  ****    0 ROOT
