@<TRIPOS>MOLECULE
TUU
   37    39     1     0     0
SMALL
No Charge or Current Charge


@<TRIPOS>ATOM
      1 C10         20.1870     1.0920    61.6280 ca         1 TUU       0.410900
      2 C15         26.8770     4.5870    60.5170 c3         1 TUU      -0.083400
      3 C03         22.8180     1.7790    61.2010 ca         1 TUU      -0.316500
      4 C04         22.0820     1.2410    60.1060 ca         1 TUU       0.072000
      5 C05         20.7330     0.8900    60.3490 ca         1 TUU      -0.116000
      6 C06         19.9270     0.3480    59.3280 ca         1 TUU      -0.076000
      7 C07         20.4540     0.1570    58.0440 ca         1 TUU      -0.113000
      8 C08         21.7840     0.5110    57.7800 ca         1 TUU      -0.070000
      9 C09         22.5920     1.0490    58.7970 ca         1 TUU      -0.110000
     10 C12         22.1700     1.9580    62.4300 ca         1 TUU       0.410900
     11 C14         25.5720     4.8060    61.3220 c3         1 TUU       0.246800
     12 C16         26.7860     4.4770    58.9770 c3         1 TUU       0.169800
     13 C18         24.3590     4.4610    58.4080 c3         1 TUU       0.148800
     14 C19         23.6330     4.4600    59.7890 c3         1 TUU       0.239800
     15 N11         20.8830     1.6210    62.6530 nb         1 TUU      -0.685000
     16 N13         24.3980     3.9800    60.9710 n3         1 TUU      -0.821500
     17 N17         25.6490     5.2100    58.3860 n7         1 TUU      -0.872400
     18 O01         25.2850     1.7540    60.0680 o          1 TUU      -0.548500
     19 O20         25.0310     2.1430    62.5760 o          1 TUU      -0.548500
     20 S02         24.5390     2.2990    61.2030 sy         1 TUU       1.227600
     21 H1          19.1510     0.8300    61.8380 h4         1 TUU       0.021100
     22 H3          27.5460     5.4220    60.7570 hc         1 TUU       0.054700
     23 H4          18.8910     0.0790    59.5280 ha         1 TUU       0.117000
     24 H5          19.8330    -0.2600    57.2540 ha         1 TUU       0.120000
     25 H6          22.1930     0.3700    56.7820 ha         1 TUU       0.121000
     26 H7          23.6030     1.3120    58.5250 ha         1 TUU       0.134000
     27 H8          22.6810     2.3910    63.2890 h4         1 TUU       0.022100
     28 H9          25.2990     5.8650    61.2180 h1         1 TUU       0.053200
     29 H10         25.8120     4.6700    62.3850 h1         1 TUU       0.053200
     30 H11         26.7420     3.4180    58.6900 h1         1 TUU       0.033700
     31 H12         27.7280     4.8650    58.5640 h1         1 TUU       0.033700
     32 H13         23.6670     4.9160    57.6860 h1         1 TUU       0.042700
     33 H14         24.5120     3.4250    58.0770 h1         1 TUU       0.042700
     34 H15         23.3260     5.4970    59.9780 h1         1 TUU       0.057700
     35 H16         22.6960     3.8990    59.6780 h1         1 TUU       0.057700
     36 H17         25.8820     5.3580    57.3950 hn         1 TUU       0.414000
     37 H2          27.3820     3.6900    60.8930 hc         1 TUU       0.054700
@<TRIPOS>BOND
     1     1     5 ar  
     2     1    15 ar  
     3     1    21 1   
     4     2    11 1   
     5     2    12 1   
     6     2    22 1   
     7     2    37 1   
     8     3     4 ar  
     9     3    10 ar  
    10     3    20 1   
    11     4     5 ar  
    12     4     9 ar  
    13     5     6 ar  
    14     6     7 ar  
    15     6    23 1   
    16     7     8 ar  
    17     7    24 1   
    18     8     9 ar  
    19     8    25 1   
    20     9    26 1   
    21    10    15 ar  
    22    10    27 1   
    23    11    16 1   
    24    11    28 1   
    25    11    29 1   
    26    12    17 1   
    27    12    30 1   
    28    12    31 1   
    29    13    14 1   
    30    13    17 1   
    31    13    32 1   
    32    13    33 1   
    33    14    16 1   
    34    14    34 1   
    35    14    35 1   
    36    16    20 1   
    37    17    36 1   
    38    18    20 2   
    39    19    20 2   
@<TRIPOS>SUBSTRUCTURE
     1 TUU         1 TEMP              0 ****  ****    0 ROOT
