@<TRIPOS>MOLECULE
TUV
   54    57     1     0     0
SMALL
No Charge or Current Charge


@<TRIPOS>ATOM
      1 C10        107.7180     1.8940    19.0470 c6         1 TUV       0.041600
      2 C13        108.6120    -2.2620    17.5380 c5         1 TUV      -0.065000
      3 C15        108.7600    -1.0150    15.4770 c5         1 TUV      -0.074400
      4 C17        109.0930    -3.3230    16.4260 c5         1 TUV       0.096000
      5 C20        107.9630    -4.3980    16.1120 c          1 TUV       0.519100
      6 C21        107.9640    -5.7310    16.9080 c3         1 TUV       0.060600
      7 C22        110.8290    -2.3210    14.6430 c3         1 TUV      -0.074100
      8 C01        108.8440     2.6430    19.7780 c2         1 TUV      -0.153200
      9 C02        109.1630     3.9380    19.5500 ce         1 TUV      -0.288200
     10 C03        108.4670     4.7800    18.5530 c          1 TUV       0.567500
     11 C04        107.3850     4.1020    17.8060 ce         1 TUV      -0.300200
     12 C05        107.0320     2.8110    18.0090 c2         1 TUV      -0.036400
     13 C06        105.9680     2.1530    17.1460 c6         1 TUV      -0.048200
     14 C07        106.5820     0.9560    16.4030 c6         1 TUV      -0.067400
     15 C08        107.1890    -0.0730    17.3940 c6         1 TUV      -0.011500
     16 C09        108.1870     0.5650    18.3900 c2         1 TUV      -0.099400
     17 C11        109.3260    -0.0730    18.7500 c2         1 TUV      -0.208200
     18 C12        109.7680    -1.4410    18.2480 c6         1 TUV      -0.037200
     19 C14        107.7620    -1.3120    16.6370 c5         1 TUV      -0.053700
     20 C16        109.3560    -2.4160    15.1180 c5         1 TUV      -0.045700
     21 C18        107.7580    -2.8850    18.6870 c3         1 TUV      -0.093100
     22 C19        106.6870     1.5420    20.1620 c3         1 TUV      -0.075100
     23 O01        108.7650     5.9490    18.3570 o          1 TUV      -0.526100
     24 O03        110.2750    -4.0140    16.8530 oh         1 TUV      -0.646000
     25 O04        107.1030    -4.2520    15.2430 o          1 TUV      -0.526100
     26 O05        106.7740    -6.4360    16.5500 oh         1 TUV      -0.652000
     27 H1         109.5340    -0.2990    15.7770 hc         1 TUV       0.052700
     28 H2         108.2590    -0.5710    14.6090 hc         1 TUV       0.052700
     29 H3         108.8570    -6.3060    16.6310 h1         1 TUV       0.064200
     30 H4         107.9930    -5.5250    17.9850 h1         1 TUV       0.064200
     31 H5         111.2090    -3.3030    14.3350 hc         1 TUV       0.039367
     32 H6         110.9220    -1.6470    13.7830 hc         1 TUV       0.039367
     33 H7         111.4840    -1.9410    15.4350 hc         1 TUV       0.039367
     34 H8         109.3640     2.0970    20.5660 ha         1 TUV       0.179000
     35 H9         109.9530     4.4320    20.1130 ha         1 TUV       0.200000
     36 H10        106.8930     4.7120    17.0520 ha         1 TUV       0.199000
     37 H11        105.5640     2.8670    16.4160 hc         1 TUV       0.056200
     38 H12        105.1150     1.8300    17.7570 hc         1 TUV       0.056200
     39 H13        105.8170     0.4760    15.7780 hc         1 TUV       0.050700
     40 H14        107.3570     1.3330    15.7230 hc         1 TUV       0.050700
     41 H15        106.3510    -0.4460    17.9980 hc         1 TUV       0.056700
     42 H17        110.0090     0.3550    19.4800 ha         1 TUV       0.176000
     43 H19        110.1750    -2.0230    19.0870 hc         1 TUV       0.056200
     44 H20        110.6190    -1.2990    17.5690 hc         1 TUV       0.056200
     45 H21        106.8760    -1.8220    16.2400 hc         1 TUV       0.069700
     46 H22        108.8330    -2.7770    14.2100 hc         1 TUV       0.063700
     47 H23        107.4560    -2.1270    19.4210 hc         1 TUV       0.042367
     48 H24        106.8350    -3.3440    18.3150 hc         1 TUV       0.042367
     49 H25        108.3220    -3.6470    19.2360 hc         1 TUV       0.042367
     50 H26        107.1440     0.9190    20.9400 hc         1 TUV       0.043367
     51 H27        106.3070     2.4490    20.6480 hc         1 TUV       0.043367
     52 H28        105.8220     0.9910    19.7790 hc         1 TUV       0.043367
     53 H29        109.9570    -4.7650    17.3920 ho         1 TUV       0.451000
     54 H30        106.4190    -5.8200    15.8580 ho         1 TUV       0.465000
@<TRIPOS>BOND
     1     1     8 1   
     2     1    12 1   
     3     1    16 1   
     4     1    22 1   
     5     2     4 1   
     6     2    18 1   
     7     2    19 1   
     8     2    21 1   
     9     3    19 1   
    10     3    20 1   
    11     3    27 1   
    12     3    28 1   
    13     4     5 1   
    14     4    20 1   
    15     4    24 1   
    16     5     6 1   
    17     5    25 2   
    18     6    26 1   
    19     6    29 1   
    20     6    30 1   
    21     7    20 1   
    22     7    31 1   
    23     7    32 1   
    24     7    33 1   
    25     8     9 2   
    26     8    34 1   
    27     9    10 1   
    28     9    35 1   
    29    10    11 1   
    30    10    23 2   
    31    11    12 2   
    32    11    36 1   
    33    12    13 1   
    34    13    14 1   
    35    13    37 1   
    36    13    38 1   
    37    14    15 1   
    38    14    39 1   
    39    14    40 1   
    40    15    16 1   
    41    15    19 1   
    42    15    41 1   
    43    16    17 2   
    44    17    18 1   
    45    17    42 1   
    46    18    43 1   
    47    18    44 1   
    48    19    45 1   
    49    20    46 1   
    50    21    47 1   
    51    21    48 1   
    52    21    49 1   
    53    22    50 1   
    54    22    51 1   
    55    22    52 1   
    56    24    53 1   
    57    26    54 1   
@<TRIPOS>SUBSTRUCTURE
     1 TUV         1 TEMP              0 ****  ****    0 ROOT
