@<TRIPOS>MOLECULE
TUV
   54    57     1     0     0
SMALL
bcc


@<TRIPOS>ATOM
      1 C10        107.6500     1.8490    19.0360 c6         1 TUV       0.041600
      2 C13        108.4740    -2.2040    17.5250 c5         1 TUV      -0.065000
      3 C15        108.5430    -1.0560    15.4350 c5         1 TUV      -0.074400
      4 C17        109.0320    -3.2410    16.4920 c5         1 TUV       0.072800
      5 C20        108.0220    -4.3720    16.2960 c          1 TUV       0.519100
      6 C21        108.3580    -5.7460    16.8400 c3         1 TUV       0.037400
      7 C22        110.6050    -2.3220    14.6290 c3         1 TUV      -0.074100
      8 C01        108.7280     2.4250    19.8950 c2         1 TUV      -0.103200
      9 C02        109.2140     3.6590    19.7720 ce         1 TUV      -0.238200
     10 C03        108.7420     4.5640    18.7200 c          1 TUV       0.567500
     11 C04        107.6950     4.0440    17.8460 ce         1 TUV      -0.250200
     12 C05        107.1830     2.8120    17.9750 c2         1 TUV      -0.036400
     13 C06        106.1430     2.2920    17.0380 c6         1 TUV      -0.048200
     14 C07        106.6580     1.0300    16.3520 c6         1 TUV      -0.067400
     15 C08        107.1090    -0.0290    17.3610 c6         1 TUV      -0.011500
     16 C09        108.0880     0.5490    18.3510 c2         1 TUV      -0.099400
     17 C11        109.2290    -0.0690    18.6470 c2         1 TUV      -0.158200
     18 C12        109.6510    -1.3960    18.1000 c6         1 TUV      -0.037200
     19 C14        107.6320    -1.2760    16.6420 c5         1 TUV      -0.053700
     20 C16        109.1840    -2.4270    15.1620 c5         1 TUV      -0.045700
     21 C18        107.6870    -2.8260    18.6770 c3         1 TUV      -0.093100
     22 C19        106.4720     1.5410    19.9990 c3         1 TUV      -0.075100
     23 O01        109.1980     5.6920    18.5890 o          1 TUV      -0.526100
     24 O03        110.2650    -3.7990    16.8750 oh         1 TUV      -0.583800
     25 O04        106.9710    -4.2200    15.7140 o          1 TUV      -0.526100
     26 O05        107.2850    -6.6290    16.7100 oh         1 TUV      -0.589800
     27 H1         109.3140    -0.3100    15.6570 hc         1 TUV       0.052700
     28 H2         108.0030    -0.6940    14.5600 hc         1 TUV       0.052700
     29 H3         109.2460    -6.1030    16.3000 h1         1 TUV       0.064200
     30 H4         108.6540    -5.6660    17.8920 h1         1 TUV       0.064200
     31 H5         111.0270    -3.2940    14.3750 hc         1 TUV       0.039367
     32 H6         110.5960    -1.7220    13.7180 hc         1 TUV       0.039367
     33 H7         111.2790    -1.8340    15.3330 hc         1 TUV       0.039367
     34 H8         109.0880     1.7960    20.7020 ha         1 TUV       0.129000
     35 H9         109.9710     4.0300    20.4530 ha         1 TUV       0.150000
     36 H10        107.3310     4.7040    17.0650 ha         1 TUV       0.149000
     37 H11        105.8910     3.0530    16.2980 hc         1 TUV       0.056200
     38 H12        105.2250     2.0640    17.5870 hc         1 TUV       0.056200
     39 H13        105.8800     0.6110    15.7090 hc         1 TUV       0.050700
     40 H14        107.4960     1.2990    15.7030 hc         1 TUV       0.050700
     41 H15        106.2120    -0.3360    17.9170 hc         1 TUV       0.056700
     42 H17        109.9300     0.3800    19.3410 ha         1 TUV       0.126000
     43 H19        110.1340    -1.9540    18.9070 hc         1 TUV       0.056200
     44 H20        110.4360    -1.2360    17.3560 hc         1 TUV       0.056200
     45 H21        106.7500    -1.8240    16.2970 hc         1 TUV       0.069700
     46 H22        108.5900    -2.9210    14.3910 hc         1 TUV       0.063700
     47 H23        107.4450    -2.0670    19.4220 hc         1 TUV       0.042367
     48 H24        106.7460    -3.2720    18.3500 hc         1 TUV       0.042367
     49 H25        108.2650    -3.5960    19.1950 hc         1 TUV       0.042367
     50 H26        106.8190     0.9050    20.8130 hc         1 TUV       0.043367
     51 H27        106.0760     2.4630    20.4260 hc         1 TUV       0.043367
     52 H28        105.6570     1.0230    19.4980 hc         1 TUV       0.043367
     53 H29        110.2750    -3.9690    17.8230 ho         1 TUV       0.412000
     54 H30        106.6240    -6.1970    16.1530 ho         1 TUV       0.426000
@<TRIPOS>BOND
     1     1     8 1   
     2     1    12 1   
     3     1    16 1   
     4     1    22 1   
     5     2     4 1   
     6     2    18 1   
     7     2    19 1   
     8     2    21 1   
     9     3    19 1   
    10     3    20 1   
    11     3    27 1   
    12     3    28 1   
    13     4     5 1   
    14     4    20 1   
    15     4    24 1   
    16     5     6 1   
    17     5    25 2   
    18     6    26 1   
    19     6    29 1   
    20     6    30 1   
    21     7    20 1   
    22     7    31 1   
    23     7    32 1   
    24     7    33 1   
    25     8     9 2   
    26     8    34 1   
    27     9    10 1   
    28     9    35 1   
    29    10    11 1   
    30    10    23 2   
    31    11    12 2   
    32    11    36 1   
    33    12    13 1   
    34    13    14 1   
    35    13    37 1   
    36    13    38 1   
    37    14    15 1   
    38    14    39 1   
    39    14    40 1   
    40    15    16 1   
    41    15    19 1   
    42    15    41 1   
    43    16    17 2   
    44    17    18 1   
    45    17    42 1   
    46    18    43 1   
    47    18    44 1   
    48    19    45 1   
    49    20    46 1   
    50    21    47 1   
    51    21    48 1   
    52    21    49 1   
    53    22    50 1   
    54    22    51 1   
    55    22    52 1   
    56    24    53 1   
    57    26    54 1   
@<TRIPOS>SUBSTRUCTURE
     1 TUV         1 TEMP              0 ****  ****    0 ROOT
