@<TRIPOS>MOLECULE
TUW
   65    69     1     0     0
SMALL
No Charge or Current Charge


@<TRIPOS>ATOM
      1 C1          19.0920    10.4050    16.8150 c3         1 TUW       0.194600
      2 C3          18.8400     9.0250    16.2000 cx         1 TUW      -0.122000
      3 C6          21.5160     8.9090    13.5650 c5         1 TUW       0.464000
      4 C10         24.8380    10.9720    13.2100 ca         1 TUW      -0.143000
      5 C11         25.3180    11.9310    12.3030 ca         1 TUW      -0.032000
      6 C12         24.7620    13.2210    12.3470 ca         1 TUW      -0.073000
      7 C13         25.1910    14.2430    11.4410 cg         1 TUW       0.326000
      8 C15         23.7690    13.5010    13.3010 ca         1 TUW       0.377900
      9 C19         22.6920     6.8230    13.7470 ca         1 TUW      -0.125600
     10 C21         22.0690     4.6800    12.7820 ca         1 TUW      -0.081300
     11 C22         20.9180     5.3150    12.2310 ca         1 TUW      -0.133000
     12 C23         20.6710     6.6850    12.4470 ca         1 TUW       0.201000
     13 C25         21.5720     7.4290    13.2150 ca         1 TUW      -0.162300
     14 C26         22.3810     3.1840    12.5580 c3         1 TUW       0.223300
     15 C27         21.2050     2.3760    11.9560 c3         1 TUW      -0.099100
     16 C28         23.6330     3.0340    11.6650 c3         1 TUW      -0.099100
     17 C31         20.9790    11.0850    12.3020 ca         1 TUW      -0.070500
     18 C35         22.7460    10.4100    10.2290 ca         1 TUW      -0.111000
     19 C36         22.5520     9.5260    11.3050 ca         1 TUW      -0.070500
     20 C37         17.8640     8.0810    16.8740 cx         1 TUW      -0.112900
     21 C38         17.4960     8.7330    15.5620 cx         1 TUW      -0.112900
     22 O2          19.9160    10.3030    17.9830 oh         1 TUW      -0.673000
     23 C4          20.1000     8.4570    15.5470 c3         1 TUW       0.194600
     24 O5          20.3480     9.2240    14.3530 os         1 TUW      -0.452000
     25 N7          22.7520     9.0400    14.3900 n          1 TUW      -0.448800
     26 C9          23.8220    11.3260    14.1190 ca         1 TUW       0.352300
     27 N14         25.5490    15.0700    10.7000 n1         1 TUW      -0.442000
     28 N16         23.3030    12.5770    14.1760 nb         1 TUW      -0.680000
     29 C17         23.4600     7.8360    14.4960 c          1 TUW       0.577600
     30 O18         24.5130     7.6650    15.0930 o          1 TUW      -0.524000
     31 C20         22.9680     5.4620    13.5510 ca         1 TUW      -0.054000
     32 F24         19.5780     7.2710    11.9110 f          1 TUW      -0.162000
     33 O29         22.6820     2.5880    13.8210 oh         1 TUW      -0.657000
     34 C30         21.6700     9.8530    12.3610 ca         1 TUW      -0.082300
     35 C32         21.1750    11.9690    11.2270 ca         1 TUW      -0.111000
     36 C33         22.0620    11.6330    10.1950 ca         1 TUW       0.131000
     37 Cl1         22.3290    12.7520     8.8660 cl         1 TUW      -0.203000
     38 H39         19.5640    11.0590    16.0690 h1         1 TUW       0.032700
     39 H40         18.1280    10.8620    17.0800 h1         1 TUW       0.032700
     40 H44         23.9550    10.0410    15.8300 h1         1 TUW       0.086700
     41 H45         22.3570    10.7340    15.5750 h1         1 TUW       0.086700
     42 H46         25.2290     9.9580    13.1950 ha         1 TUW       0.139000
     43 H47         26.0910    11.6730    11.5810 ha         1 TUW       0.134000
     44 H48         23.3210    14.4920    13.3660 h4         1 TUW       0.031100
     45 H50         20.2040     4.7660    11.6250 ha         1 TUW       0.137000
     46 H51         20.2990     2.4850    12.5640 hc         1 TUW       0.048867
     47 H53         20.9830     2.7060    10.9350 hc         1 TUW       0.048867
     48 H52         21.4510     1.3080    11.9100 hc         1 TUW       0.048867
     49 H54         23.8790     1.9770    11.5090 hc         1 TUW       0.048867
     50 H56         23.4610     3.4920    10.6840 hc         1 TUW       0.048867
     51 H55         24.5050     3.5200    12.1180 hc         1 TUW       0.048867
     52 H58         20.3030    11.3760    13.1030 ha         1 TUW       0.131000
     53 H60         23.4350    10.1520     9.4300 ha         1 TUW       0.133500
     54 H61         23.1080     8.5900    11.3240 ha         1 TUW       0.131000
     55 H62         17.3560     8.4280    17.7710 hc         1 TUW       0.076950
     56 H63         18.0880     7.0170    16.8660 hc         1 TUW       0.076950
     57 H65         16.7390     9.5130    15.5790 hc         1 TUW       0.076950
     58 H64         17.4800     8.1080    14.6720 hc         1 TUW       0.076950
     59 H43         20.0090    11.2120    18.3440 ho         1 TUW       0.445000
     60 H41         19.9420     7.3980    15.3020 h1         1 TUW       0.047200
     61 H42         20.9440     8.5200    16.2460 h1         1 TUW       0.047200
     62 H49         23.8630     5.0210    13.9870 ha         1 TUW       0.151000
     63 H57         21.9220     2.7870    14.4090 ho         1 TUW       0.445000
     64 H59         20.6480    12.9190    11.2000 ha         1 TUW       0.133500
     65 C8          23.2150    10.2860    15.0590 c3         1 TUW       0.053700
@<TRIPOS>BOND
     1     1     2 1   
     2     1    22 1   
     3     1    38 1   
     4     1    39 1   
     5     2    20 1   
     6     2    21 1   
     7     2    23 1   
     8     3    13 1   
     9     3    24 1   
    10     3    25 1   
    11     3    34 1   
    12     4     5 ar  
    13     4    26 ar  
    14     4    42 1   
    15     5     6 ar  
    16     5    43 1   
    17     6     7 1   
    18     6     8 ar  
    19     7    27 3   
    20     8    28 ar  
    21     8    44 1   
    22     9    13 ar  
    23     9    29 1   
    24     9    31 ar  
    25    10    11 ar  
    26    10    14 1   
    27    10    31 ar  
    28    11    12 ar  
    29    11    45 1   
    30    12    13 ar  
    31    12    32 1   
    32    14    15 1   
    33    14    16 1   
    34    14    33 1   
    35    15    46 1   
    36    15    47 1   
    37    15    48 1   
    38    16    49 1   
    39    16    50 1   
    40    16    51 1   
    41    17    34 ar  
    42    17    35 ar  
    43    17    52 1   
    44    18    19 ar  
    45    18    36 ar  
    46    18    53 1   
    47    19    34 ar  
    48    19    54 1   
    49    20    21 1   
    50    20    55 1   
    51    20    56 1   
    52    21    57 1   
    53    21    58 1   
    54    22    59 1   
    55    23    24 1   
    56    23    60 1   
    57    23    61 1   
    58    25    29 1   
    59    25    65 1   
    60    26    28 ar  
    61    26    65 1   
    62    29    30 2   
    63    31    62 1   
    64    33    63 1   
    65    35    36 ar  
    66    35    64 1   
    67    36    37 1   
    68    40    65 1   
    69    41    65 1   
@<TRIPOS>SUBSTRUCTURE
     1 TUW         1 TEMP              0 ****  ****    0 ROOT
