@<TRIPOS>MOLECULE
TUW
   65    69     1     0     0
SMALL
abcg2


@<TRIPOS>ATOM
      1 C1          19.2610    10.4860    16.4900 c3         1 TUW       0.194600
      2 C3          18.8830     9.1500    15.9100 cx         1 TUW      -0.122000
      3 C6          21.5770     8.8260    13.4310 c5         1 TUW       0.464000
      4 C10         24.5160    11.0900    13.2710 ca         1 TUW      -0.143000
      5 C11         24.9550    12.1580    12.5170 ca         1 TUW      -0.032000
      6 C12         24.4580    13.4310    12.8160 ca         1 TUW      -0.073000
      7 C13         24.8400    14.5700    12.0520 cg         1 TUW       0.326000
      8 C15         23.5620    13.5670    13.8800 ca         1 TUW       0.377900
      9 C19         22.7410     6.7600    13.7310 ca         1 TUW      -0.125600
     10 C21         22.2270     4.6260    12.7830 ca         1 TUW      -0.081300
     11 C22         21.1440     5.2200    12.1210 ca         1 TUW      -0.133000
     12 C23         20.8780     6.5680    12.2780 ca         1 TUW       0.201000
     13 C25         21.6680     7.3540    13.0880 ca         1 TUW      -0.162300
     14 C26         22.5050     3.1330    12.5930 c3         1 TUW       0.223300
     15 C27         21.2690     2.3020    12.9500 c3         1 TUW      -0.099100
     16 C28         22.9550     2.8670    11.1570 c3         1 TUW      -0.099100
     17 C31         21.2000    11.0250    12.2390 ca         1 TUW      -0.070500
     18 C35         22.9000    10.2720    10.1680 ca         1 TUW      -0.111000
     19 C36         22.5920     9.3770    11.1830 ca         1 TUW      -0.070500
     20 C37         17.8750     8.3130    16.6520 cx         1 TUW      -0.112900
     21 C38         17.4860     9.0000    15.3700 cx         1 TUW      -0.112900
     22 O2          20.2680    10.2910    17.4940 oh         1 TUW      -0.673000
     23 C4          19.9860     8.4130    15.2060 c3         1 TUW       0.194600
     24 O5          20.3770     9.1900    14.0620 os         1 TUW      -0.452000
     25 N7          22.7390     8.9620    14.3490 n          1 TUW      -0.448800
     26 C9          23.5770    11.3090    14.2780 ca         1 TUW       0.352300
     27 N14         25.1430    15.4950    11.4330 n1         1 TUW      -0.442000
     28 N16         23.1290    12.5310    14.5870 nb         1 TUW      -0.680000
     29 C17         23.4300     7.7970    14.5440 c          1 TUW       0.577600
     30 O18         24.4150     7.6590    15.2550 o          1 TUW      -0.524000
     31 C20         23.0430     5.4160    13.5940 ca         1 TUW      -0.054000
     32 F24         19.8260     7.1130    11.6280 f          1 TUW      -0.162000
     33 O29         23.6020     2.7150    13.4150 oh         1 TUW      -0.657000
     34 C30         21.7570     9.7500    12.2330 ca         1 TUW      -0.082300
     35 C32         21.5030    11.9340    11.2330 ca         1 TUW      -0.111000
     36 C33         22.3640    11.5510    10.2160 ca         1 TUW       0.131000
     37 CL1         22.8020    12.7110     8.9820 cl         1 TUW      -0.203000
     38 H39         19.6440    11.1400    15.7010 h1         1 TUW       0.032700
     39 H40         18.3750    10.9580    16.9270 h1         1 TUW       0.032700
     40 H44         23.7080     9.9060    15.8830 h1         1 TUW       0.086700
     41 H45         22.0880    10.5200    15.5700 h1         1 TUW       0.086700
     42 H46         24.8670    10.0900    13.0620 ha         1 TUW       0.139000
     43 H47         25.6550    12.0200    11.7050 ha         1 TUW       0.134000
     44 H48         23.1800    14.5460    14.1470 h4         1 TUW       0.031100
     45 H50         20.4970     4.6420    11.4750 ha         1 TUW       0.137000
     46 H51         20.9780     2.4820    13.9870 hc         1 TUW       0.048867
     47 H53         20.4220     2.5480    12.3100 hc         1 TUW       0.048867
     48 H52         21.5000     1.2430    12.8260 hc         1 TUW       0.048867
     49 H54         23.1530     1.8020    11.0270 hc         1 TUW       0.048867
     50 H56         22.1840     3.1680    10.4490 hc         1 TUW       0.048867
     51 H55         23.8660     3.4260    10.9390 hc         1 TUW       0.048867
     52 H58         20.5510    11.3260    13.0480 ha         1 TUW       0.131000
     53 H60         23.5630     9.9850     9.3640 ha         1 TUW       0.133500
     54 H61         23.0370     8.3920    11.1620 ha         1 TUW       0.131000
     55 H62         17.4890     8.7100    17.5810 hc         1 TUW       0.076950
     56 H63         17.9990     7.2380    16.6360 hc         1 TUW       0.076950
     57 H65         16.8270     9.8570    15.4320 hc         1 TUW       0.076950
     58 H64         17.3600     8.3930    14.4840 hc         1 TUW       0.076950
     59 H43         20.6320    11.1530    17.7280 ho         1 TUW       0.445000
     60 H41         19.6410     7.4280    14.8820 h1         1 TUW       0.047200
     61 H42         20.8400     8.2800    15.8730 h1         1 TUW       0.047200
     62 H49         23.8920     4.9890    14.1060 ha         1 TUW       0.151000
     63 H57         23.3160     2.7130    14.3390 ho         1 TUW       0.445000
     64 H59         21.0920    12.9340    11.2550 ha         1 TUW       0.133500
     65 C8          23.0030    10.1730    15.0930 c3         1 TUW       0.053700
@<TRIPOS>BOND
     1     1     2 1   
     2     1    22 1   
     3     1    38 1   
     4     1    39 1   
     5     2    20 1   
     6     2    21 1   
     7     2    23 1   
     8     3    13 1   
     9     3    24 1   
    10     3    25 1   
    11     3    34 1   
    12     4     5 ar  
    13     4    26 ar  
    14     4    42 1   
    15     5     6 ar  
    16     5    43 1   
    17     6     7 1   
    18     6     8 ar  
    19     7    27 3   
    20     8    28 ar  
    21     8    44 1   
    22     9    13 ar  
    23     9    29 1   
    24     9    31 ar  
    25    10    11 ar  
    26    10    14 1   
    27    10    31 ar  
    28    11    12 ar  
    29    11    45 1   
    30    12    13 ar  
    31    12    32 1   
    32    14    15 1   
    33    14    16 1   
    34    14    33 1   
    35    15    46 1   
    36    15    47 1   
    37    15    48 1   
    38    16    49 1   
    39    16    50 1   
    40    16    51 1   
    41    17    34 ar  
    42    17    35 ar  
    43    17    52 1   
    44    18    19 ar  
    45    18    36 ar  
    46    18    53 1   
    47    19    34 ar  
    48    19    54 1   
    49    20    21 1   
    50    20    55 1   
    51    20    56 1   
    52    21    57 1   
    53    21    58 1   
    54    22    59 1   
    55    23    24 1   
    56    23    60 1   
    57    23    61 1   
    58    25    29 1   
    59    25    65 1   
    60    26    28 ar  
    61    26    65 1   
    62    29    30 2   
    63    31    62 1   
    64    33    63 1   
    65    35    36 ar  
    66    35    64 1   
    67    36    37 1   
    68    40    65 1   
    69    41    65 1   
@<TRIPOS>SUBSTRUCTURE
     1 TUW         1 TEMP              0 ****  ****    0 ROOT
