@<TRIPOS>MOLECULE
TUX
   71    71     1     0     0
SMALL
No Charge or Current Charge


@<TRIPOS>ATOM
      1 C3G          0.9430     0.0510    -4.0500 c6         1 TUX       0.173300
      2 C4G          1.8220    -0.5740    -5.1940 c6         1 TUX       0.124300
      3 C5G          1.4100     0.0370    -6.5700 c6         1 TUX       0.133300
      4 C2G         -0.5730    -0.0570    -4.3910 c6         1 TUX      -0.096700
      5 C1G         -0.8390     0.5330    -5.8020 c6         1 TUX       0.154600
      6 O5G         -0.0140    -0.1330    -6.7770 os         1 TUX      -0.427000
      7 O3G          1.1770    -0.5790    -2.7660 os         1 TUX      -0.457100
      8 O1A          3.1950     0.4230    -2.3750 o          1 TUX      -0.475000
      9 C1A          2.2960    -0.3260    -2.0220 c          1 TUX       0.604100
     10 C2A          2.2700    -1.0600    -0.6820 c3         1 TUX      -0.138400
     11 C3A          1.6620    -0.1720     0.4300 c3         1 TUX      -0.068400
     12 C4A          1.6010    -0.8800     1.8010 c3         1 TUX      -0.076400
     13 C5A          0.9940     0.0060     2.9110 c3         1 TUX      -0.074400
     14 C6A          0.9320    -0.7010     4.2830 c3         1 TUX      -0.074400
     15 C7A          0.3250     0.1850     5.3930 c3         1 TUX      -0.074400
     16 C8A          0.2630    -0.5230     6.7640 c3         1 TUX      -0.074400
     17 C9A         -0.3440     0.3630     7.8740 c3         1 TUX      -0.074400
     18 CAA         -0.4060    -0.3440     9.2460 c3         1 TUX      -0.074400
     19 CBA         -1.0130     0.5420    10.3560 c3         1 TUX      -0.074400
     20 CCA         -1.0750    -0.1650    11.7270 c3         1 TUX      -0.075400
     21 CDA         -1.6810     0.7210    12.8370 c3         1 TUX      -0.074400
     22 CEA         -1.7440     0.0150    14.2060 c3         1 TUX      -0.089100
     23 CZH         -1.4730     0.6170    -3.2980 c3         1 TUX      -0.155400
     24 CYH         -2.9790     0.4660    -3.5610 c          1 TUX       0.600100
     25 OYH         -3.5500    -0.6130    -3.4770 o          1 TUX      -0.565100
     26 NXH         -3.6450     1.6430    -3.8860 ns         1 TUX      -0.390400
     27 OXH         -5.0920     1.7020    -3.8960 oh         1 TUX      -0.423100
     28 O4G          3.2370    -0.3990    -4.9620 oh         1 TUX      -0.707000
     29 C6G          2.1640    -0.6270    -7.7710 c3         1 TUX       0.170600
     30 O6G          1.7520    -0.1170    -9.0550 oh         1 TUX      -0.705000
     31 H3G          1.1870     1.1210    -3.9630 h1         1 TUX       0.081700
     32 H4G          1.5940    -1.6500    -5.2300 h1         1 TUX       0.055700
     33 H5G          1.6420     1.1120    -6.5750 h1         1 TUX       0.063700
     34 H2G         -0.8460    -1.1220    -4.4120 hc         1 TUX       0.096700
     35 H1G1        -1.8920     0.3900    -6.0830 h1         1 TUX       0.054200
     36 H1G2        -0.6260     1.6120    -5.8190 h1         1 TUX       0.054200
     37 H2A2         3.2920    -1.3390    -0.4030 hc         1 TUX       0.071200
     38 H2A3         1.6360    -1.9500    -0.7750 hc         1 TUX       0.071200
     39 H3A3         0.6500     0.1330     0.1350 hc         1 TUX       0.054200
     40 H3A2         2.2570     0.7460     0.5240 hc         1 TUX       0.054200
     41 H4A2         2.6130    -1.1830     2.0960 hc         1 TUX       0.037200
     42 H4A3         1.0050    -1.7970     1.7070 hc         1 TUX       0.037200
     43 H5A3        -0.0190     0.3100     2.6170 hc         1 TUX       0.040200
     44 H5A2         1.5890     0.9230     3.0060 hc         1 TUX       0.040200
     45 H6A2         1.9440    -1.0050     4.5770 hc         1 TUX       0.037200
     46 H6A3         0.3360    -1.6180     4.1880 hc         1 TUX       0.037200
     47 H7A3        -0.6870     0.4890     5.0980 hc         1 TUX       0.037700
     48 H7A2         0.9200     1.1020     5.4870 hc         1 TUX       0.037700
     49 H8A2         1.2750    -0.8260     7.0590 hc         1 TUX       0.036700
     50 H8A3        -0.3320    -1.4390     6.6700 hc         1 TUX       0.036700
     51 H9A3        -1.3560     0.6670     7.5790 hc         1 TUX       0.037700
     52 H9A2         0.2510     1.2800     7.9680 hc         1 TUX       0.037700
     53 HAA2         0.6060    -0.6480     9.5400 hc         1 TUX       0.036700
     54 HAA3        -1.0010    -1.2610     9.1510 hc         1 TUX       0.036700
     55 HBA3        -2.0250     0.8460    10.0610 hc         1 TUX       0.036700
     56 HBA2        -0.4170     1.4590    10.4500 hc         1 TUX       0.036700
     57 HCA2        -0.0630    -0.4690    12.0220 hc         1 TUX       0.036700
     58 HCA3        -1.6700    -1.0820    11.6330 hc         1 TUX       0.036700
     59 HDA3        -2.6950     1.0250    12.5470 hc         1 TUX       0.036700
     60 HDA2        -1.0880     1.6380    12.9360 hc         1 TUX       0.036700
     61 HEA1        -2.1800     0.6810    14.9600 hc         1 TUX       0.031367
     62 HEA2        -2.3610    -0.8890    14.1480 hc         1 TUX       0.031367
     63 HEA3        -0.7390    -0.2710    14.5410 hc         1 TUX       0.031367
     64 HZH2        -1.2200     1.6810    -3.2250 hc         1 TUX       0.069700
     65 HZH3        -1.2730     0.1480    -2.3280 hc         1 TUX       0.069700
     66 HNH1        -3.1600     2.5340    -3.7870 hn         1 TUX       0.335500
     67 HOH1        -5.3030     2.1260    -4.7610 ho         1 TUX       0.446000
     68 HOG4         3.3410    -0.0510    -4.0390 ho         1 TUX       0.509000
     69 H6G2         1.9900    -1.7110    -7.7260 h1         1 TUX       0.025700
     70 H6G3         3.2410    -0.4650    -7.6370 h1         1 TUX       0.025700
     71 HOG6         2.2330    -0.6400    -9.7380 ho         1 TUX       0.504000
@<TRIPOS>BOND
     1     1     2 1   
     2     1     4 1   
     3     1     7 1   
     4     1    31 1   
     5     2     3 1   
     6     2    28 1   
     7     2    32 1   
     8     3     6 1   
     9     3    29 1   
    10     3    33 1   
    11     4     5 1   
    12     4    23 1   
    13     4    34 1   
    14     5     6 1   
    15     5    35 1   
    16     5    36 1   
    17     7     9 1   
    18     8     9 2   
    19     9    10 1   
    20    10    11 1   
    21    10    37 1   
    22    10    38 1   
    23    11    12 1   
    24    11    39 1   
    25    11    40 1   
    26    12    13 1   
    27    12    41 1   
    28    12    42 1   
    29    13    14 1   
    30    13    43 1   
    31    13    44 1   
    32    14    15 1   
    33    14    45 1   
    34    14    46 1   
    35    15    16 1   
    36    15    47 1   
    37    15    48 1   
    38    16    17 1   
    39    16    49 1   
    40    16    50 1   
    41    17    18 1   
    42    17    51 1   
    43    17    52 1   
    44    18    19 1   
    45    18    53 1   
    46    18    54 1   
    47    19    20 1   
    48    19    55 1   
    49    19    56 1   
    50    20    21 1   
    51    20    57 1   
    52    20    58 1   
    53    21    22 1   
    54    21    59 1   
    55    21    60 1   
    56    22    61 1   
    57    22    62 1   
    58    22    63 1   
    59    23    24 1   
    60    23    64 1   
    61    23    65 1   
    62    24    25 2   
    63    24    26 1   
    64    26    27 1   
    65    26    66 1   
    66    27    67 1   
    67    28    68 1   
    68    29    30 1   
    69    29    69 1   
    70    29    70 1   
    71    30    71 1   
@<TRIPOS>SUBSTRUCTURE
     1 TUX         1 TEMP              0 ****  ****    0 ROOT
