@<TRIPOS>MOLECULE
TUX
   71    71     1     0     0
SMALL
abcg2


@<TRIPOS>ATOM
      1 C3G          0.5260     0.1440    -4.2030 c6         1 TUX       0.173300
      2 C4G          1.8640    -0.4650    -4.6000 c6         1 TUX       0.124300
      3 C5G          2.1750    -0.1000    -6.0590 c6         1 TUX       0.133300
      4 C2G         -0.5760    -0.2470    -5.1760 c6         1 TUX      -0.096700
      5 C1G         -0.1030     0.1050    -6.5840 c6         1 TUX       0.154600
      6 O5G          1.1180    -0.5160    -6.8960 os         1 TUX      -0.427000
      7 O3G          0.1950    -0.3350    -2.8990 os         1 TUX      -0.457100
      8 O1A          0.6050     1.6260    -1.8890 o          1 TUX      -0.475000
      9 C1A          0.3590     0.4500    -1.8320 c          1 TUX       0.604100
     10 C2A          0.1840    -0.3350    -0.5610 c3         1 TUX      -0.138400
     11 C3A          0.1680     0.5210     0.6950 c3         1 TUX      -0.068400
     12 C4A          0.0630    -0.3260     1.9560 c3         1 TUX      -0.076400
     13 C5A          0.0440     0.5070     3.2320 c3         1 TUX      -0.074400
     14 C6A         -0.0200    -0.3390     4.4970 c3         1 TUX      -0.074400
     15 C7A         -0.0410     0.4870     5.7760 c3         1 TUX      -0.074400
     16 C8A         -0.0810    -0.3650     7.0390 c3         1 TUX      -0.074400
     17 C9A         -0.1000     0.4560     8.3220 c3         1 TUX      -0.074400
     18 CAA         -0.1260    -0.4020     9.5810 c3         1 TUX      -0.074400
     19 CBA         -0.1430     0.4140    10.8680 c3         1 TUX      -0.074400
     20 CCA         -0.1620    -0.4490    12.1240 c3         1 TUX      -0.075400
     21 CDA         -0.1760     0.3610    13.4150 c3         1 TUX      -0.074400
     22 CEA         -0.1930    -0.5170    14.6590 c3         1 TUX      -0.089100
     23 CZH         -1.8850     0.4670    -4.8450 c3         1 TUX      -0.155400
     24 CYH         -3.0240     0.0050    -5.7270 c          1 TUX       0.600100
     25 OYH         -3.3200    -1.1680    -5.8660 o          1 TUX      -0.565100
     26 NXH         -3.6560     1.0130    -6.3560 ns         1 TUX      -0.390400
     27 OXH         -4.8130     0.7780    -7.0340 oh         1 TUX      -0.423100
     28 O4G          2.8340     0.0350    -3.7180 oh         1 TUX      -0.707000
     29 C6G          3.4480    -0.7610    -6.5430 c3         1 TUX       0.170600
     30 O6G          3.7470    -0.2810    -7.8340 oh         1 TUX      -0.705000
     31 H3G          0.6240     1.2350    -4.1890 h1         1 TUX       0.081700
     32 H4G          1.7800    -1.5590    -4.5280 h1         1 TUX       0.055700
     33 H5G          2.2930     0.9960    -6.1200 h1         1 TUX       0.063700
     34 H2G         -0.7330    -1.3300    -5.1230 hc         1 TUX       0.096700
     35 H1G1        -0.8280    -0.2340    -7.3260 h1         1 TUX       0.054200
     36 H1G2        -0.0180     1.1990    -6.6790 h1         1 TUX       0.054200
     37 H2A2         1.0020    -1.0630    -0.5120 hc         1 TUX       0.071200
     38 H2A3        -0.7310    -0.9310    -0.6350 hc         1 TUX       0.071200
     39 H3A3        -0.6710     1.2220     0.6540 hc         1 TUX       0.054200
     40 H3A2         1.0750     1.1290     0.7410 hc         1 TUX       0.054200
     41 H4A2         0.9050    -1.0260     1.9950 hc         1 TUX       0.037200
     42 H4A3        -0.8410    -0.9430     1.9120 hc         1 TUX       0.037200
     43 H5A3        -0.8120     1.1910     3.2060 hc         1 TUX       0.040200
     44 H5A2         0.9370     1.1410     3.2640 hc         1 TUX       0.040200
     45 H6A2         0.8390    -1.0200     4.5200 hc         1 TUX       0.037200
     46 H6A3        -0.9100    -0.9780     4.4630 hc         1 TUX       0.037200
     47 H7A3        -0.9070     1.1580     5.7620 hc         1 TUX       0.037700
     48 H7A2         0.8430     1.1350     5.8040 hc         1 TUX       0.037700
     49 H8A2         0.7860    -1.0350     7.0500 hc         1 TUX       0.036700
     50 H8A3        -0.9630    -1.0140     7.0100 hc         1 TUX       0.036700
     51 H9A3        -0.9710     1.1200     8.3160 hc         1 TUX       0.037700
     52 H9A2         0.7790     1.1100     8.3470 hc         1 TUX       0.037700
     53 HAA2         0.7460    -1.0660     9.5850 hc         1 TUX       0.036700
     54 HAA3        -1.0040    -1.0570     9.5560 hc         1 TUX       0.036700
     55 HBA3        -1.0160     1.0750    10.8680 hc         1 TUX       0.036700
     56 HBA2         0.7340     1.0710    10.8930 hc         1 TUX       0.036700
     57 HCA2         0.7120    -1.1110    12.1230 hc         1 TUX       0.036700
     58 HCA3        -1.0380    -1.1060    12.1000 hc         1 TUX       0.036700
     59 HDA3        -1.0490     1.0210    13.4190 hc         1 TUX       0.036700
     60 HDA2         0.7000     1.0170    13.4400 hc         1 TUX       0.036700
     61 HEA1        -0.2030     0.0770    15.5740 hc         1 TUX       0.031367
     62 HEA2        -1.0750    -1.1610    14.6740 hc         1 TUX       0.031367
     63 HEA3         0.6860    -1.1640    14.6950 hc         1 TUX       0.031367
     64 HZH2        -1.7420     1.5490    -4.9100 hc         1 TUX       0.069700
     65 HZH3        -2.1800     0.2510    -3.8150 hc         1 TUX       0.069700
     66 HNH1        -3.4890     1.9820    -6.1260 hn         1 TUX       0.335500
     67 HOH1        -4.5660     0.6880    -7.9640 ho         1 TUX       0.446000
     68 HOG4         3.5250    -0.6230    -3.6030 ho         1 TUX       0.509000
     69 H6G2         3.3060    -1.8500    -6.5360 h1         1 TUX       0.025700
     70 H6G3         4.2530    -0.5310    -5.8360 h1         1 TUX       0.025700
     71 HOG6         4.5740    -0.6840    -8.1140 ho         1 TUX       0.504000
@<TRIPOS>BOND
     1     1     2 1   
     2     1     4 1   
     3     1     7 1   
     4     1    31 1   
     5     2     3 1   
     6     2    28 1   
     7     2    32 1   
     8     3     6 1   
     9     3    29 1   
    10     3    33 1   
    11     4     5 1   
    12     4    23 1   
    13     4    34 1   
    14     5     6 1   
    15     5    35 1   
    16     5    36 1   
    17     7     9 1   
    18     8     9 2   
    19     9    10 1   
    20    10    11 1   
    21    10    37 1   
    22    10    38 1   
    23    11    12 1   
    24    11    39 1   
    25    11    40 1   
    26    12    13 1   
    27    12    41 1   
    28    12    42 1   
    29    13    14 1   
    30    13    43 1   
    31    13    44 1   
    32    14    15 1   
    33    14    45 1   
    34    14    46 1   
    35    15    16 1   
    36    15    47 1   
    37    15    48 1   
    38    16    17 1   
    39    16    49 1   
    40    16    50 1   
    41    17    18 1   
    42    17    51 1   
    43    17    52 1   
    44    18    19 1   
    45    18    53 1   
    46    18    54 1   
    47    19    20 1   
    48    19    55 1   
    49    19    56 1   
    50    20    21 1   
    51    20    57 1   
    52    20    58 1   
    53    21    22 1   
    54    21    59 1   
    55    21    60 1   
    56    22    61 1   
    57    22    62 1   
    58    22    63 1   
    59    23    24 1   
    60    23    64 1   
    61    23    65 1   
    62    24    25 2   
    63    24    26 1   
    64    26    27 1   
    65    26    66 1   
    66    27    67 1   
    67    28    68 1   
    68    29    30 1   
    69    29    69 1   
    70    29    70 1   
    71    30    71 1   
@<TRIPOS>SUBSTRUCTURE
     1 TUX         1 TEMP              0 ****  ****    0 ROOT
