@<TRIPOS>MOLECULE
TUZ
   64    68     1     0     0
SMALL
No Charge or Current Charge


@<TRIPOS>ATOM
      1 C1          23.8080     3.2950    11.5820 c3         1 TUZ      -0.099100
      2 C2          22.5930     3.4070    12.5310 c3         1 TUZ       0.223300
      3 C3          21.4210     2.5530    11.9880 c3         1 TUZ      -0.099100
      4 C5          22.2380     4.8920    12.7620 ca         1 TUZ      -0.078300
      5 C6          23.1430     5.7110    13.4850 ca         1 TUZ      -0.054000
      6 C7          22.8280     7.0620    13.6860 ca         1 TUZ      -0.127600
      7 C8          23.5920     8.1070    14.3950 c          1 TUZ       0.577600
      8 O9          24.6760     7.9770    14.9450 o          1 TUZ      -0.519000
      9 C12         23.8170    11.6030    13.9770 ca         1 TUZ       0.326300
     10 C13         24.7850    11.2660    13.0090 ca         1 TUZ      -0.130000
     11 C14         25.2000    12.2360    12.0790 ca         1 TUZ      -0.063000
     12 C15         24.6330    13.5170    12.1590 ca         1 TUZ       0.066000
     13 N18         23.2820    12.8450    14.0690 nb         1 TUZ      -0.670000
     14 C19         21.5710     9.1040    13.5480 c5         1 TUZ       0.465000
     15 C22         19.0100     9.1240    16.2780 cx         1 TUZ      -0.241000
     16 C23         17.6460     8.7250    15.7390 cx         1 TUZ      -0.087400
     17 C24         18.1350     8.1480    17.0460 cx         1 TUZ      -0.087400
     18 C25         19.1580    10.5100    16.8580 c          1 TUZ       0.638100
     19 C28         21.6640     7.6250    13.2020 ca         1 TUZ      -0.165300
     20 C31         21.0420     5.4830    12.2590 ca         1 TUZ      -0.133000
     21 C35         21.8750    11.8240    10.1450 ca         1 TUZ       0.136000
     22 C37         22.5920    10.6190    10.1490 ca         1 TUZ      -0.108000
     23 C38         22.4740     9.7350    11.2360 ca         1 TUZ      -0.069000
     24 O4          22.9720     2.8300    13.7810 oh         1 TUZ      -0.656000
     25 N10         22.8370     9.2840    14.3150 n          1 TUZ      -0.453800
     26 Cl1         25.1000    14.7680    11.0100 cl         1 TUZ      -0.188000
     27 C17         23.6860    13.7790    13.1700 ca         1 TUZ       0.350900
     28 O20         20.4280     9.3810    14.3880 os         1 TUZ      -0.463000
     29 O26         19.5280    10.7260    17.9990 o          1 TUZ      -0.619100
     30 N27         18.8470    11.5230    16.0270 nt         1 TUZ      -0.596000
     31 C29         20.7570     6.8450    12.4790 ca         1 TUZ       0.202000
     32 F30         19.6200     7.3880    11.9900 f          1 TUZ      -0.160000
     33 C32         21.6390    10.0450    12.3340 ca         1 TUZ      -0.084300
     34 C33         20.9160    11.2600    12.3070 ca         1 TUZ      -0.069000
     35 C34         21.0340    12.1430    11.2200 ca         1 TUZ      -0.108000
     36 H40         24.0840     2.2460    11.4200 hc         1 TUZ       0.049533
     37 H39         23.5750     3.7410    10.6070 hc         1 TUZ       0.049533
     38 H41         24.6810     3.8150    11.9920 hc         1 TUZ       0.049533
     39 H44         20.5400     2.6350    12.6350 hc         1 TUZ       0.049533
     40 H43         21.1400     2.8680    10.9760 hc         1 TUZ       0.049533
     41 H42         21.7030     1.4940    11.9360 hc         1 TUZ       0.049533
     42 H46         24.0720     5.3050    13.8830 ha         1 TUZ       0.151000
     43 H47         24.0710    10.3380    15.6880 h1         1 TUZ       0.080700
     44 H48         22.4390    10.9750    15.5040 h1         1 TUZ       0.080700
     45 H49         25.1920    10.2600    12.9680 ha         1 TUZ       0.135000
     46 H50         25.9350    11.9990    11.3130 ha         1 TUZ       0.137000
     47 H53         20.1530     7.5430    15.3620 h1         1 TUZ       0.046700
     48 H52         21.1260     8.7300    16.2630 h1         1 TUZ       0.046700
     49 H55         16.8370     9.4500    15.7820 hc         1 TUZ       0.085450
     50 H54         17.6130     8.0640    14.8750 hc         1 TUZ       0.085450
     51 H56         17.6560     8.4950    17.9600 hc         1 TUZ       0.085450
     52 H57         18.4210     7.0990    17.0590 hc         1 TUZ       0.085450
     53 H60         20.3220     4.9050    11.6890 ha         1 TUZ       0.138000
     54 H63         23.2460    10.3740     9.3170 ha         1 TUZ       0.134500
     55 H64         23.0540     8.8140    11.2300 ha         1 TUZ       0.126500
     56 H45         22.2350     3.0050    14.4030 ho         1 TUZ       0.445000
     57 H51         23.2330    14.7650    13.2600 h4         1 TUZ       0.035100
     58 H58         18.9300    12.4740    16.3500 hn         1 TUZ       0.318000
     59 H59         18.5710    11.3160    15.0800 hn         1 TUZ       0.318000
     60 H61         20.2770    11.5390    13.1410 ha         1 TUZ       0.126500
     61 H62         20.4820    13.0790    11.2160 ha         1 TUZ       0.134500
     62 C11         23.2870    10.5510    14.9510 c3         1 TUZ       0.060700
     63 C21         20.2650     8.6110    15.5910 c3         1 TUZ       0.192600
     64 Cl2         22.0420    12.9410     8.7970 cl         1 TUZ      -0.201000
@<TRIPOS>BOND
     1     1     2 1   
     2     1    36 1   
     3     1    37 1   
     4     1    38 1   
     5     2     3 1   
     6     2     4 1   
     7     2    24 1   
     8     3    39 1   
     9     3    40 1   
    10     3    41 1   
    11     4     5 ar  
    12     4    20 ar  
    13     5     6 ar  
    14     5    42 1   
    15     6     7 1   
    16     6    19 ar  
    17     7     8 2   
    18     7    25 1   
    19     9    10 ar  
    20     9    13 ar  
    21     9    62 1   
    22    10    11 ar  
    23    10    45 1   
    24    11    12 ar  
    25    11    46 1   
    26    12    26 1   
    27    12    27 ar  
    28    13    27 ar  
    29    14    19 1   
    30    14    25 1   
    31    14    28 1   
    32    14    33 1   
    33    15    16 1   
    34    15    17 1   
    35    15    18 1   
    36    15    63 1   
    37    16    17 1   
    38    16    49 1   
    39    16    50 1   
    40    17    51 1   
    41    17    52 1   
    42    18    29 2   
    43    18    30 1   
    44    19    31 ar  
    45    20    31 ar  
    46    20    53 1   
    47    21    22 ar  
    48    21    35 ar  
    49    21    64 1   
    50    22    23 ar  
    51    22    54 1   
    52    23    33 ar  
    53    23    55 1   
    54    24    56 1   
    55    25    62 1   
    56    27    57 1   
    57    28    63 1   
    58    30    58 1   
    59    30    59 1   
    60    31    32 1   
    61    33    34 ar  
    62    34    35 ar  
    63    34    60 1   
    64    35    61 1   
    65    43    62 1   
    66    44    62 1   
    67    47    63 1   
    68    48    63 1   
@<TRIPOS>SUBSTRUCTURE
     1 TUZ         1 TEMP              0 ****  ****    0 ROOT
