@<TRIPOS>MOLECULE
TUZ
   64    68     1     0     0
SMALL
abcg2


@<TRIPOS>ATOM
      1 C1          22.6610     3.2250    11.1100 c3         1 TUZ      -0.099100
      2 C2          22.4860     3.5210    12.5990 c3         1 TUZ       0.223300
      3 C3          21.3370     2.7020    13.1950 c3         1 TUZ      -0.099100
      4 C5          22.2420     5.0170    12.8110 ca         1 TUZ      -0.078300
      5 C6          23.1490     5.8090    13.5150 ca         1 TUZ      -0.054000
      6 C7          22.8670     7.1550    13.6810 ca         1 TUZ      -0.127600
      7 C8          23.6430     8.1960    14.4050 c          1 TUZ       0.577600
      8 O9          24.7030     8.0640    14.9980 o          1 TUZ      -0.519000
      9 C12         23.8880    11.6480    13.9920 ca         1 TUZ       0.326300
     10 C13         24.6660    11.3140    12.8870 ca         1 TUZ      -0.130000
     11 C14         25.1020    12.3180    12.0390 ca         1 TUZ      -0.063000
     12 C15         24.7580    13.6250    12.3490 ca         1 TUZ       0.066000
     13 N18         23.5870    12.9130    14.2930 nb         1 TUZ      -0.670000
     14 C19         21.6750     9.2190    13.5150 c5         1 TUZ       0.465000
     15 C22         18.9490     8.9060    15.9640 cx         1 TUZ      -0.241000
     16 C23         17.9930     7.9000    15.3460 cx         1 TUZ      -0.087400
     17 C24         18.4400     7.7160    16.7550 cx         1 TUZ      -0.087400
     18 C25         18.3440    10.2330    16.3280 c          1 TUZ       0.638100
     19 C28         21.7280     7.7480    13.1630 ca         1 TUZ      -0.165300
     20 C31         21.0870     5.6090    12.2820 ca         1 TUZ      -0.133000
     21 C35         21.9930    11.9280    10.2040 ca         1 TUZ       0.136000
     22 C37         22.4660    10.6300    10.0690 ca         1 TUZ      -0.108000
     23 C38         22.3090     9.7450    11.1260 ca         1 TUZ      -0.069000
     24 O4          23.7180     3.1180    13.2100 oh         1 TUZ      -0.656000
     25 N10         22.9320     9.3600    14.2880 n          1 TUZ      -0.453800
     26 CL1         25.2340    14.9390    11.3060 cl         1 TUZ      -0.188000
     27 C17         24.0170    13.8870    13.4920 ca         1 TUZ       0.350900
     28 O20         20.5460     9.5550    14.2940 os         1 TUZ      -0.463000
     29 O26         17.2280    10.3140    16.8440 o          1 TUZ      -0.619100
     30 N27         19.0910    11.3250    16.0710 nt         1 TUZ      -0.596000
     31 C29         20.8460     6.9600    12.4590 ca         1 TUZ       0.202000
     32 F30         19.7300     7.5050    11.9270 f          1 TUZ      -0.160000
     33 C32         21.6850    10.1440    12.3050 ca         1 TUZ      -0.084300
     34 C33         21.1870    11.4400    12.4030 ca         1 TUZ      -0.069000
     35 C34         21.3430    12.3400    11.3570 ca         1 TUZ      -0.108000
     36 H40         22.8530     2.1610    10.9720 hc         1 TUZ       0.049533
     37 H39         21.7640     3.4920    10.5520 hc         1 TUZ       0.049533
     38 H41         23.5020     3.7930    10.7100 hc         1 TUZ       0.049533
     39 H44         21.2490     2.8980    14.2660 hc         1 TUZ       0.049533
     40 H43         20.3850     2.9490    12.7250 hc         1 TUZ       0.049533
     41 H42         21.5340     1.6400    13.0440 hc         1 TUZ       0.049533
     42 H46         24.0540     5.3840    13.9240 ha         1 TUZ       0.151000
     43 H47         24.0750    10.3340    15.6750 h1         1 TUZ       0.080700
     44 H48         22.4740    11.0300    15.4480 h1         1 TUZ       0.080700
     45 H49         24.8980    10.2810    12.6710 ha         1 TUZ       0.135000
     46 H50         25.6820    12.0910    11.1550 ha         1 TUZ       0.137000
     47 H53         20.6690     7.7950    15.4030 h1         1 TUZ       0.046700
     48 H52         21.0450     9.2790    16.2890 h1         1 TUZ       0.046700
     49 H55         16.9810     8.2370    15.1760 hc         1 TUZ       0.085450
     50 H54         18.4090     7.2570    14.5820 hc         1 TUZ       0.085450
     51 H56         17.7340     7.9360    17.5420 hc         1 TUZ       0.085450
     52 H57         19.1620     6.9400    16.9720 hc         1 TUZ       0.085450
     53 H60         20.3650     5.0270    11.7260 ha         1 TUZ       0.138000
     54 H63         22.9640    10.3200     9.1610 ha         1 TUZ       0.134500
     55 H64         22.7070     8.7440    11.0300 ha         1 TUZ       0.126500
     56 H45         23.6030     3.1110    14.1690 ho         1 TUZ       0.445000
     57 H51         23.7530    14.9050    13.7550 h4         1 TUZ       0.035100
     58 H58         18.6910    12.2340    16.2470 hn         1 TUZ       0.318000
     59 H59         19.9180    11.2730    15.5000 hn         1 TUZ       0.318000
     60 H61         20.7000    11.7690    13.3080 ha         1 TUZ       0.126500
     61 H62         20.9780    13.3540    11.4470 ha         1 TUZ       0.134500
     62 C11         23.3260    10.5980    14.9260 c3         1 TUZ       0.060700
     63 C21         20.3870     8.8400    15.5340 c3         1 TUZ       0.192600
     64 CL2         22.2350    13.0720     8.9020 cl         1 TUZ      -0.201000
@<TRIPOS>BOND
     1     1     2 1   
     2     1    36 1   
     3     1    37 1   
     4     1    38 1   
     5     2     3 1   
     6     2     4 1   
     7     2    24 1   
     8     3    39 1   
     9     3    40 1   
    10     3    41 1   
    11     4     5 ar  
    12     4    20 ar  
    13     5     6 ar  
    14     5    42 1   
    15     6     7 1   
    16     6    19 ar  
    17     7     8 2   
    18     7    25 1   
    19     9    10 ar  
    20     9    13 ar  
    21     9    62 1   
    22    10    11 ar  
    23    10    45 1   
    24    11    12 ar  
    25    11    46 1   
    26    12    26 1   
    27    12    27 ar  
    28    13    27 ar  
    29    14    19 1   
    30    14    25 1   
    31    14    28 1   
    32    14    33 1   
    33    15    16 1   
    34    15    17 1   
    35    15    18 1   
    36    15    63 1   
    37    16    17 1   
    38    16    49 1   
    39    16    50 1   
    40    17    51 1   
    41    17    52 1   
    42    18    29 2   
    43    18    30 1   
    44    19    31 ar  
    45    20    31 ar  
    46    20    53 1   
    47    21    22 ar  
    48    21    35 ar  
    49    21    64 1   
    50    22    23 ar  
    51    22    54 1   
    52    23    33 ar  
    53    23    55 1   
    54    24    56 1   
    55    25    62 1   
    56    27    57 1   
    57    28    63 1   
    58    30    58 1   
    59    30    59 1   
    60    31    32 1   
    61    33    34 ar  
    62    34    35 ar  
    63    34    60 1   
    64    35    61 1   
    65    43    62 1   
    66    44    62 1   
    67    47    63 1   
    68    48    63 1   
@<TRIPOS>SUBSTRUCTURE
     1 TUZ         1 TEMP              0 ****  ****    0 ROOT
