@<TRIPOS>MOLECULE
TV0
   31    32     1     0     0
SMALL
No Charge or Current Charge


@<TRIPOS>ATOM
      1 N1          16.1240    14.0310     2.7570 n          1 TV0      -0.313000
      2 N3          18.4010    13.3880     2.4270 nc         1 TV0      -0.772100
      3 C4          15.0930    14.6810     3.6230 c5         1 TV0       0.217700
      4 C5          11.0900    14.8270     3.9400 c3         1 TV0       0.137600
      5 C6          15.7850    13.5140     1.5060 cc         1 TV0       0.017600
      6 C7          17.4530    13.9710     3.2250 c          1 TV0       0.713400
      7 C8          16.7700    12.9400     0.7380 cd         1 TV0      -0.481600
      8 C1          12.4790    14.9580     3.2430 c5         1 TV0       0.305000
      9 C2          13.2600    16.2970     3.5800 c5         1 TV0       0.191300
     10 C3          14.6700    16.0370     2.9490 c5         1 TV0       0.165300
     11 C9          18.0730    12.9140     1.2730 cd         1 TV0       0.785500
     12 N2          19.0610    12.3690     0.5930 nv         1 TV0      -1.034200
     13 O1          13.3770    16.5810     4.9910 oh         1 TV0      -0.683000
     14 O2          15.5790    17.1170     3.2390 oh         1 TV0      -0.680000
     15 O3          12.2080    14.8340     1.8550 oh         1 TV0      -0.694000
     16 O4          10.1150    15.6530     3.2610 oh         1 TV0      -0.719000
     17 O5          17.7800    14.4230     4.3100 o          1 TV0      -0.532000
     18 S1          13.6020    13.5630     3.7170 ss         1 TV0      -0.488000
     19 H1          15.4960    14.8460     4.6310 h2         1 TV0       0.153700
     20 H2          10.7790    13.7730     3.9120 h1         1 TV0       0.045700
     21 H3          11.1820    15.1120     4.9960 h1         1 TV0       0.045700
     22 H4          14.7350    13.6150     1.2380 h4         1 TV0       0.212000
     23 H5          16.5590    12.5270    -0.2410 ha         1 TV0       0.203000
     24 H6          12.7730    17.1420     3.0720 h1         1 TV0       0.085700
     25 H7          14.5680    15.9230     1.8610 h1         1 TV0       0.051700
     26 H8          19.8690    12.1650     1.1630 hn         1 TV0       0.502500
     27 H9          18.7980    11.6520    -0.0690 hn         1 TV0       0.502500
     28 H10         14.1020    17.2470     5.0610 ho         1 TV0       0.514000
     29 H11         16.3650    17.0040     2.6540 ho         1 TV0       0.515000
     30 H12         11.2700    15.1510     1.8080 ho         1 TV0       0.522000
     31 H13          9.2880    15.6340     3.8020 ho         1 TV0       0.512000
@<TRIPOS>BOND
     1     1     3 1   
     2     1     5 1   
     3     1     6 1   
     4     2     6 1   
     5     2    11 2   
     6     3    10 1   
     7     3    18 1   
     8     3    19 1   
     9     4     8 1   
    10     4    16 1   
    11     4    20 1   
    12     4    21 1   
    13     5     7 2   
    14     5    22 1   
    15     6    17 2   
    16     7    11 1   
    17     7    23 1   
    18     8     9 1   
    19     8    15 1   
    20     8    18 1   
    21     9    10 1   
    22     9    13 1   
    23     9    24 1   
    24    10    14 1   
    25    10    25 1   
    26    11    12 1   
    27    12    26 1   
    28    12    27 1   
    29    13    28 1   
    30    14    29 1   
    31    15    30 1   
    32    16    31 1   
@<TRIPOS>SUBSTRUCTURE
     1 TV0         1 TEMP              0 ****  ****    0 ROOT
