@<TRIPOS>MOLECULE
TV0
   31    32     1     0     0
SMALL
abcg2


@<TRIPOS>ATOM
      1 N1          16.1330    14.0160     2.7680 n          1 TV0      -0.313000
      2 N3          18.3350    13.1900     2.5390 nc         1 TV0      -0.772100
      3 C4          15.1220    14.7030     3.5500 c5         1 TV0       0.217700
      4 C5          11.2030    14.9710     4.0090 c3         1 TV0       0.137600
      5 C6          15.8300    13.5720     1.5220 cc         1 TV0       0.017600
      6 C7          17.4220    13.8230     3.3050 c          1 TV0       0.713400
      7 C8          16.7410    12.9480     0.7530 cd         1 TV0      -0.481600
      8 C1          12.4830    15.0750     3.1910 c5         1 TV0       0.305000
      9 C2          13.3020    16.3530     3.4590 c5         1 TV0       0.191300
     10 C3          14.6970    16.0490     2.9320 c5         1 TV0       0.165300
     11 C9          18.0380    12.7660     1.3270 cd         1 TV0       0.785500
     12 N2          18.9850    12.1460     0.6250 nv         1 TV0      -1.034200
     13 O1          13.3970    16.6460     4.8210 oh         1 TV0      -0.683000
     14 O2          15.5810    17.0820     3.2490 oh         1 TV0      -0.680000
     15 O3          12.2440    15.0470     1.8200 oh         1 TV0      -0.694000
     16 O4          10.4010    16.0800     3.6890 oh         1 TV0      -0.719000
     17 O5          17.6720    14.2280     4.4310 o          1 TV0      -0.532000
     18 S1          13.6010    13.7060     3.7360 ss         1 TV0      -0.488000
     19 H1          15.5490    14.8710     4.5350 h2         1 TV0       0.153700
     20 H2          10.7080    14.0200     3.7650 h1         1 TV0       0.045700
     21 H3          11.4520    14.9340     5.0730 h1         1 TV0       0.045700
     22 H4          14.8150    13.7330     1.1850 h4         1 TV0       0.212000
     23 H5          16.4930    12.5940    -0.2360 ha         1 TV0       0.203000
     24 H6          12.8600    17.1820     2.8930 h1         1 TV0       0.085700
     25 H7          14.6140    15.9230     1.8460 h1         1 TV0       0.051700
     26 H8          19.8970    12.0010     1.0230 hn         1 TV0       0.502500
     27 H9          18.8090    11.7910    -0.2990 hn         1 TV0       0.502500
     28 H10         12.6070    17.1250     5.0910 ho         1 TV0       0.514000
     29 H11         16.3560    17.0120     2.6840 ho         1 TV0       0.515000
     30 H12         11.7460    14.2530     1.5930 ho         1 TV0       0.522000
     31 H13          9.6100    16.0480     4.2350 ho         1 TV0       0.512000
@<TRIPOS>BOND
     1     1     3 1   
     2     1     5 1   
     3     1     6 1   
     4     2     6 1   
     5     2    11 2   
     6     3    10 1   
     7     3    18 1   
     8     3    19 1   
     9     4     8 1   
    10     4    16 1   
    11     4    20 1   
    12     4    21 1   
    13     5     7 2   
    14     5    22 1   
    15     6    17 2   
    16     7    11 1   
    17     7    23 1   
    18     8     9 1   
    19     8    15 1   
    20     8    18 1   
    21     9    10 1   
    22     9    13 1   
    23     9    24 1   
    24    10    14 1   
    25    10    25 1   
    26    11    12 1   
    27    12    26 1   
    28    12    27 1   
    29    13    28 1   
    30    14    29 1   
    31    15    30 1   
    32    16    31 1   
@<TRIPOS>SUBSTRUCTURE
     1 TV0         1 TEMP              0 ****  ****    0 ROOT
