@<TRIPOS>MOLECULE
TV1
   73    76     1     0     0
SMALL
abcg2


@<TRIPOS>ATOM
      1 C1          74.0610    35.6530     7.0530 ca         1 TV1      -0.119000
      2 C2          74.0770    37.0560     6.9460 ca         1 TV1      -0.093000
      3 C3          73.9370    34.8800     5.9270 ca         1 TV1      -0.082000
      4 C4          73.9690    37.6680     5.7220 ca         1 TV1      -0.094000
      5 C5          73.6860    34.7450     3.4630 ca         1 TV1      -0.064000
      6 C6          72.9570    34.9170    -0.2450 cc         1 TV1       0.287900
      7 C7          73.8250    35.4860     4.6580 ca         1 TV1      -0.108000
      8 C8          73.5760    35.3680     2.2480 ca         1 TV1      -0.042000
      9 C9          73.8390    36.8930     4.5520 ca         1 TV1       0.316000
     10 C10         73.4360    34.6200     1.0100 cd         1 TV1      -0.156000
     11 C11         73.6040    36.8060     2.2760 ca         1 TV1       0.617300
     12 C12         73.4580    32.8450    -0.3030 cd         1 TV1       0.405800
     13 C13         76.0660    31.3140    -0.6400 c          1 TV1       0.606100
     14 C14         78.5930    31.3340    -0.2100 cy         1 TV1       0.164800
     15 C15         77.8620    29.5420    -0.9890 cy         1 TV1       0.164800
     16 C16         77.2530    30.6040    -0.0420 cy         1 TV1      -0.194700
     17 C17         64.9400    29.3970     1.9140 c3         1 TV1      -0.089100
     18 C20         65.0150    29.2390     0.4010 c3         1 TV1      -0.135400
     19 C21         69.9790    30.1280    -0.0580 c3         1 TV1      -0.076400
     20 C23         68.5930    30.5590    -0.5250 c3         1 TV1      -0.069400
     21 C24         72.4680    30.5520    -0.1530 c3         1 TV1      -0.085400
     22 C25         67.4890    29.7430     0.1350 c3         1 TV1      -0.140400
     23 C26         73.6160    31.4080    -0.6980 c3         1 TV1       0.091400
     24 C27         66.0650    30.1230    -0.2920 c3         1 TV1       0.415000
     25 N28         72.9750    33.8110    -1.0410 nc         1 TV1      -0.664000
     26 N29         73.7270    37.5140     3.3510 nb         1 TV1      -0.766000
     27 N30         73.7440    33.2810     0.9380 na         1 TV1      -0.294500
     28 N31         78.8940    30.5010    -1.3730 nq         1 TV1      -0.695600
     29 N32         74.8690    30.8780    -0.1990 ns         1 TV1      -0.534900
     30 O33         76.1620    32.1980    -1.4760 o          1 TV1      -0.550100
     31 O34         65.9170    30.0270    -1.6850 oh         1 TV1      -0.641500
     32 O35         65.8020    31.4800    -0.0550 oh         1 TV1      -0.641500
     33 O36         73.4920    37.4080     1.0980 os         1 TV1      -0.452300
     34 H1          74.1470    35.1870     8.0250 ha         1 TV1       0.115000
     35 H2          74.1760    37.6580     7.8400 ha         1 TV1       0.116000
     36 H3          73.9230    33.7990     5.9990 ha         1 TV1       0.110000
     37 H4          73.9800    38.7470     5.6340 ha         1 TV1       0.131000
     38 H5          73.6450    33.6660     3.5410 ha         1 TV1       0.109000
     39 H6          72.5920    35.8610    -0.6110 h4         1 TV1       0.050100
     40 H7          79.2560    31.1490     0.6460 h1         1 TV1       0.054450
     41 H8          78.5620    32.4090    -0.4010 h1         1 TV1       0.054450
     42 H9          77.2390    29.1690    -1.8050 h1         1 TV1       0.054450
     43 H10         78.2430    28.6820    -0.4230 h1         1 TV1       0.054450
     44 H11         77.0310    30.2450     0.9630 hc         1 TV1       0.061700
     45 H12         64.1570    28.7590     2.3240 hc         1 TV1       0.034700
     46 H13         65.8740    29.1220     2.4060 hc         1 TV1       0.034700
     47 H14         64.7020    30.4230     2.2000 hc         1 TV1       0.034700
     48 H15         80.9120    30.8540    -1.7410 h1         1 TV1       0.033033
     49 H16         80.6210    29.4890    -0.6490 h1         1 TV1       0.033033
     50 H17         80.2930    29.3370    -2.3840 h1         1 TV1       0.033033
     51 H18         73.3590    39.1050     0.0280 h1         1 TV1       0.049033
     52 H19         72.6830    39.2450     1.6660 h1         1 TV1       0.049033
     53 H20         74.4400    39.2370     1.4330 h1         1 TV1       0.049033
     54 H21         64.0400    29.4760    -0.0340 hc         1 TV1       0.053700
     55 H22         65.2190    28.1910     0.1570 hc         1 TV1       0.053700
     56 H23         70.1400    29.0750    -0.3130 hc         1 TV1       0.031700
     57 H24         70.0280    30.1860     1.0350 hc         1 TV1       0.031700
     58 H25         70.9160    32.0280    -0.3980 hc         1 TV1       0.058200
     59 H26         71.0640    30.9200    -1.7430 hc         1 TV1       0.058200
     60 H27         68.4560    31.6200    -0.2990 hc         1 TV1       0.055700
     61 H28         68.5290    30.4630    -1.6120 hc         1 TV1       0.055700
     62 H29         72.6520    29.5120    -0.4380 hc         1 TV1       0.039200
     63 H30         72.4860    30.5870     0.9420 hc         1 TV1       0.039200
     64 H31         67.6380    28.6790    -0.0790 hc         1 TV1       0.042200
     65 H32         67.5770    29.8360     1.2230 hc         1 TV1       0.042200
     66 H33         73.6000    31.3700    -1.7910 h1         1 TV1       0.100700
     67 H35         74.1940    32.7340     1.6550 hn         1 TV1       0.345000
     68 H37         74.8350    30.1290     0.4750 hn         1 TV1       0.310500
     69 H38         66.0470    29.1110    -1.9510 ho         1 TV1       0.453500
     70 H39         66.1260    31.7170     0.8200 ho         1 TV1       0.453500
     71 C18         80.2390    30.0200    -1.5350 c3         1 TV1       0.150100
     72 C19         73.4960    38.8300     1.0700 c3         1 TV1       0.157900
     73 C22         71.0940    30.9790    -0.6510 c3         1 TV1      -0.074400
@<TRIPOS>BOND
     1     1     2 ar  
     2     1     3 ar  
     3     1    34 1   
     4     2     4 ar  
     5     2    35 1   
     6     3     7 ar  
     7     3    36 1   
     8     4     9 ar  
     9     4    37 1   
    10     5     7 ar  
    11     5     8 ar  
    12     5    38 1   
    13     6    10 2   
    14     6    25 1   
    15     6    39 1   
    16     7     9 ar  
    17     8    10 1   
    18     8    11 ar  
    19     9    26 ar  
    20    10    27 1   
    21    11    26 ar  
    22    11    33 1   
    23    12    23 1   
    24    12    25 2   
    25    12    27 1   
    26    13    16 1   
    27    13    29 1   
    28    13    30 2   
    29    14    16 1   
    30    14    28 1   
    31    14    40 1   
    32    14    41 1   
    33    15    16 1   
    34    15    28 1   
    35    15    42 1   
    36    15    43 1   
    37    16    44 1   
    38    17    18 1   
    39    17    45 1   
    40    17    46 1   
    41    17    47 1   
    42    18    24 1   
    43    18    54 1   
    44    18    55 1   
    45    19    20 1   
    46    19    56 1   
    47    19    57 1   
    48    19    73 1   
    49    20    22 1   
    50    20    60 1   
    51    20    61 1   
    52    21    23 1   
    53    21    62 1   
    54    21    63 1   
    55    21    73 1   
    56    22    24 1   
    57    22    64 1   
    58    22    65 1   
    59    23    29 1   
    60    23    66 1   
    61    24    31 1   
    62    24    32 1   
    63    27    67 1   
    64    28    71 1   
    65    29    68 1   
    66    31    69 1   
    67    32    70 1   
    68    33    72 1   
    69    48    71 1   
    70    49    71 1   
    71    50    71 1   
    72    51    72 1   
    73    52    72 1   
    74    53    72 1   
    75    58    73 1   
    76    59    73 1   
@<TRIPOS>SUBSTRUCTURE
     1 TV1         1 TEMP              0 ****  ****    0 ROOT
