@<TRIPOS>MOLECULE
TV1
   73    76     1     0     0
SMALL
No Charge or Current Charge


@<TRIPOS>ATOM
      1 C1          74.7480    36.3180     7.3250 ca         1 TV1      -0.119000
      2 C2          74.4240    37.6810     7.2310 ca         1 TV1      -0.093000
      3 C3          74.6430    35.4940     6.1930 ca         1 TV1      -0.082000
      4 C4          73.9960    38.2170     6.0030 ca         1 TV1      -0.094000
      5 C5          74.1080    35.2110     3.8330 ca         1 TV1      -0.064000
      6 C6          73.1830    35.1640     0.1270 cc         1 TV1       0.287900
      7 C7          74.2130    36.0350     4.9650 ca         1 TV1      -0.108000
      8 C8          73.6770    35.7650     2.6090 ca         1 TV1      -0.042000
      9 C9          73.8850    37.4060     4.8580 ca         1 TV1       0.316000
     10 C10         73.5720    34.8770     1.4180 cd         1 TV1      -0.156000
     11 C11         73.3680    37.1580     2.5960 ca         1 TV1       0.617300
     12 C12         73.6400    33.0670     0.1070 cd         1 TV1       0.405800
     13 C13         76.3440    31.3420    -0.4620 c          1 TV1       0.606100
     14 C14         78.6880    30.7970    -0.5770 cy         1 TV1       0.164800
     15 C15         77.2850    29.1650    -0.4300 cy         1 TV1       0.164800
     16 C16         77.4430    30.5270     0.3450 cy         1 TV1      -0.194700
     17 C17         64.9570    28.5300     1.1560 c3         1 TV1      -0.089100
     18 C20         65.1640    28.8000    -0.3540 c3         1 TV1      -0.135400
     19 C21         70.1580    30.1370    -0.0570 c3         1 TV1      -0.076400
     20 C23         68.7720    30.5430    -0.6070 c3         1 TV1      -0.069400
     21 C24         72.6670    30.7010     0.0850 c3         1 TV1      -0.085400
     22 C25         67.6480    29.5550    -0.1890 c3         1 TV1      -0.140400
     23 C26         73.8260    31.6280    -0.3560 c3         1 TV1       0.091400
     24 C27         66.2200    29.8810    -0.7080 c3         1 TV1       0.415000
     25 N28         73.2250    34.0530    -0.6710 nc         1 TV1      -0.664000
     26 N29         73.4720    37.9470     3.6940 nb         1 TV1      -0.766000
     27 N30         73.8630    33.5190     1.3910 na         1 TV1      -0.294500
     28 N31         78.1490    29.7480    -1.5060 nq         1 TV1      -0.695600
     29 N32         75.1110    31.0560     0.0930 ns         1 TV1      -0.534900
     30 O33         76.3900    32.1850    -1.3510 o          1 TV1      -0.550100
     31 O34         66.2480    30.0330    -2.1060 oh         1 TV1      -0.641500
     32 O35         65.7990    31.1260    -0.2090 oh         1 TV1      -0.641500
     33 O36         72.9420    37.7450     1.4240 os         1 TV1      -0.452300
     34 H1          75.0790    35.9010     8.2740 ha         1 TV1       0.115000
     35 H2          74.5050    38.3220     8.1060 ha         1 TV1       0.116000
     36 H3          74.8950    34.4390     6.2720 ha         1 TV1       0.110000
     37 H4          73.7470    39.2720     5.9360 ha         1 TV1       0.131000
     38 H5          74.3600    34.1580     3.9130 ha         1 TV1       0.109000
     39 H6          72.8670    36.1040    -0.3050 h4         1 TV1       0.050100
     40 H7          79.6300    30.5150    -0.0900 h1         1 TV1       0.054450
     41 H8          78.7940    31.8090    -0.9850 h1         1 TV1       0.054450
     42 H9          76.2700    28.8790    -0.7320 h1         1 TV1       0.054450
     43 H10         77.7470    28.3270     0.1070 h1         1 TV1       0.054450
     44 H11         77.4720    30.6040     1.4360 hc         1 TV1       0.061700
     45 H12         64.1500    27.8010     1.3030 hc         1 TV1       0.034700
     46 H13         65.8640    28.1200     1.6150 hc         1 TV1       0.034700
     47 H14         64.6820    29.4490     1.6880 hc         1 TV1       0.034700
     48 H15         79.5910    29.5640    -3.0310 h1         1 TV1       0.033033
     49 H16         79.7420    28.3770    -1.7000 h1         1 TV1       0.033033
     50 H17         78.4350    28.2040    -2.9110 h1         1 TV1       0.033033
     51 H18         72.2990    39.4120     0.3340 h1         1 TV1       0.049033
     52 H19         71.7940    39.3940     2.0360 h1         1 TV1       0.049033
     53 H20         73.4840    39.7660     1.6080 h1         1 TV1       0.049033
     54 H21         64.1970    29.0880    -0.7830 hc         1 TV1       0.053700
     55 H22         65.4470    27.8560    -0.8370 hc         1 TV1       0.053700
     56 H23         70.4050    29.1300    -0.4140 hc         1 TV1       0.031700
     57 H24         70.1100    30.0860     1.0380 hc         1 TV1       0.031700
     58 H25         71.0280    32.1180    -0.1130 hc         1 TV1       0.058200
     59 H26         71.3330    31.1620    -1.5640 hc         1 TV1       0.058200
     60 H27         68.5340    31.5530    -0.2510 hc         1 TV1       0.055700
     61 H28         68.8290    30.5950    -1.7020 hc         1 TV1       0.055700
     62 H29         72.8880    29.6800    -0.2490 hc         1 TV1       0.039200
     63 H30         72.6230    30.6740     1.1820 hc         1 TV1       0.039200
     64 H31         67.9210    28.5510    -0.5360 hc         1 TV1       0.042200
     65 H32         67.6280    29.5060     0.9060 hc         1 TV1       0.042200
     66 H33         73.8360    31.6420    -1.4550 h1         1 TV1       0.100700
     67 H35         74.1860    32.9440     2.1570 hn         1 TV1       0.345000
     68 H37         75.1010    30.3820     0.8490 hn         1 TV1       0.310500
     69 H38         65.3210    29.9270    -2.3960 ho         1 TV1       0.453500
     70 H39         66.6050    31.6790    -0.1940 ho         1 TV1       0.453500
     71 C18         79.0320    28.9240    -2.3350 c3         1 TV1       0.150100
     72 C19         72.6150    39.1470     1.3510 c3         1 TV1       0.157900
     73 C22         71.2830    31.1120    -0.4690 c3         1 TV1      -0.074400
@<TRIPOS>BOND
     1     1     2 ar  
     2     1     3 ar  
     3     1    34 1   
     4     2     4 ar  
     5     2    35 1   
     6     3     7 ar  
     7     3    36 1   
     8     4     9 ar  
     9     4    37 1   
    10     5     7 ar  
    11     5     8 ar  
    12     5    38 1   
    13     6    10 2   
    14     6    25 1   
    15     6    39 1   
    16     7     9 ar  
    17     8    10 1   
    18     8    11 ar  
    19     9    26 ar  
    20    10    27 1   
    21    11    26 ar  
    22    11    33 1   
    23    12    23 1   
    24    12    25 2   
    25    12    27 1   
    26    13    16 1   
    27    13    29 1   
    28    13    30 2   
    29    14    16 1   
    30    14    28 1   
    31    14    40 1   
    32    14    41 1   
    33    15    16 1   
    34    15    28 1   
    35    15    42 1   
    36    15    43 1   
    37    16    44 1   
    38    17    18 1   
    39    17    45 1   
    40    17    46 1   
    41    17    47 1   
    42    18    24 1   
    43    18    54 1   
    44    18    55 1   
    45    19    20 1   
    46    19    56 1   
    47    19    57 1   
    48    19    73 1   
    49    20    22 1   
    50    20    60 1   
    51    20    61 1   
    52    21    23 1   
    53    21    62 1   
    54    21    63 1   
    55    21    73 1   
    56    22    24 1   
    57    22    64 1   
    58    22    65 1   
    59    23    29 1   
    60    23    66 1   
    61    24    31 1   
    62    24    32 1   
    63    27    67 1   
    64    28    71 1   
    65    29    68 1   
    66    31    69 1   
    67    32    70 1   
    68    33    72 1   
    69    48    71 1   
    70    49    71 1   
    71    50    71 1   
    72    51    72 1   
    73    52    72 1   
    74    53    72 1   
    75    58    73 1   
    76    59    73 1   
@<TRIPOS>SUBSTRUCTURE
     1 TV1         1 TEMP              0 ****  ****    0 ROOT
