@<TRIPOS>MOLECULE
TV2
   37    41     1     0     0
SMALL
No Charge or Current Charge


@<TRIPOS>ATOM
      1 N5           3.4530     2.5220     2.0410 nv         1 TV2      -0.990200
      2 C17          2.9020     1.6320     1.2310 cc         1 TV2       0.737200
      3 N3           1.8670     1.9370     0.5020 nd         1 TV2      -0.647100
      4 N1           1.6670     0.7230    -0.1400 na         1 TV2       0.047900
      5 C7           2.6210    -0.1640     0.2930 cd         1 TV2       0.002000
      6 N4           3.4220     0.3950     1.1730 nc         1 TV2      -0.435300
      7 C8           0.6890     0.3390    -1.0950 cc         1 TV2       0.583800
      8 N2           0.6780    -0.9170    -1.6110 nd         1 TV2      -0.690000
      9 C4           1.6660    -1.8280    -1.1600 ca         1 TV2       0.284000
     10 C3           1.6500    -3.1300    -1.6940 ca         1 TV2      -0.087000
     11 C2           2.5980    -4.0900    -1.2940 ca         1 TV2      -0.087000
     12 C1           3.5810    -3.7540    -0.3480 ca         1 TV2      -0.118000
     13 C6           3.6130    -2.4600     0.1960 ca         1 TV2      -0.054000
     14 C5           2.6580    -1.5090    -0.2130 ca         1 TV2      -0.077000
     15 C9          -0.3610     1.3250    -1.5420 c3         1 TV2      -0.074400
     16 C10         -1.5910     1.3360    -0.6400 ca         1 TV2      -0.072300
     17 C11         -1.7150     2.3030     0.3890 ca         1 TV2      -0.095000
     18 C12         -2.8470     2.3120     1.2330 ca         1 TV2      -0.097000
     19 C13         -3.8340     1.3430     1.0200 ca         1 TV2       0.056100
     20 C14         -3.7180     0.4070     0.0320 ca         1 TV2       0.052100
     21 C15         -2.6070     0.3690    -0.8200 ca         1 TV2      -0.076000
     22 O2          -4.9750     1.1990     1.7400 os         1 TV2      -0.344100
     23 C16         -5.6490     0.0810     1.0590 c5         1 TV2       0.373600
     24 O1          -4.7720    -0.4480     0.0010 os         1 TV2      -0.345100
     25 H5A          2.8550     3.3020     2.2770 hn         1 TV2       0.478000
     26 H5B          4.0120     2.1390     2.7920 hn         1 TV2       0.478000
     27 H91C         0.0810     2.3260    -1.5950 hc         1 TV2       0.083700
     28 H92C        -0.6570     1.0890    -2.5700 hc         1 TV2       0.083700
     29 HA           0.8920    -3.3960    -2.4260 ha         1 TV2       0.137000
     30 H2           2.5700    -5.0910    -1.7180 ha         1 TV2       0.120000
     31 H1           4.3150    -4.4940    -0.0370 ha         1 TV2       0.121000
     32 H6           4.3730    -2.1980     0.9290 ha         1 TV2       0.137000
     33 H11         -0.9340     3.0460     0.5370 ha         1 TV2       0.118000
     34 H15         -2.5330    -0.3900    -1.5960 ha         1 TV2       0.134000
     35 H12         -2.9500     3.0480     2.0270 ha         1 TV2       0.134000
     36 H161        -5.8700    -0.7120     1.7840 h2         1 TV2       0.063700
     37 H162        -6.5790     0.4440     0.6060 h2         1 TV2       0.063700
@<TRIPOS>BOND
     1     1     2 1   
     2     1    25 1   
     3     1    26 1   
     4     2     3 2   
     5     2     6 1   
     6     3     4 1   
     7     4     5 1   
     8     4     7 1   
     9     5     6 2   
    10     5    14 1   
    11     7     8 2   
    12     7    15 1   
    13     8     9 1   
    14     9    10 ar  
    15     9    14 ar  
    16    10    11 ar  
    17    10    29 1   
    18    11    12 ar  
    19    11    30 1   
    20    12    13 ar  
    21    12    31 1   
    22    13    14 ar  
    23    13    32 1   
    24    15    16 1   
    25    15    27 1   
    26    15    28 1   
    27    16    17 ar  
    28    16    21 ar  
    29    17    18 ar  
    30    17    33 1   
    31    18    19 ar  
    32    18    35 1   
    33    19    20 ar  
    34    19    22 1   
    35    20    21 ar  
    36    20    24 1   
    37    21    34 1   
    38    22    23 1   
    39    23    24 1   
    40    23    36 1   
    41    23    37 1   
@<TRIPOS>SUBSTRUCTURE
     1 TV2         1 TEMP              0 ****  ****    0 ROOT
