@<TRIPOS>MOLECULE
TV2
   37    41     1     0     0
SMALL
abcg2


@<TRIPOS>ATOM
      1 N5           4.7550     2.9690    -0.3030 nv         1 TV2      -0.990200
      2 C17          3.8420     1.9780    -0.1750 cc         1 TV2       0.737200
      3 N3           2.5450     2.2060    -0.0650 nd         1 TV2      -0.647100
      4 N1           2.0420     0.9540    -0.0280 na         1 TV2       0.047900
      5 C7           3.0490     0.0450    -0.1130 cd         1 TV2       0.002000
      6 N4           4.1990     0.6680    -0.2080 nc         1 TV2      -0.435300
      7 C8           0.7220     0.6140     0.0860 cc         1 TV2       0.583800
      8 N2           0.3690    -0.6210     0.1150 nd         1 TV2      -0.690000
      9 C4           1.3190    -1.6080     0.0300 ca         1 TV2       0.284000
     10 C3           0.9020    -2.9480     0.0600 ca         1 TV2      -0.087000
     11 C2           1.8280    -3.9620    -0.0240 ca         1 TV2      -0.087000
     12 C1           3.1970    -3.6770    -0.1390 ca         1 TV2      -0.118000
     13 C6           3.6300    -2.3720    -0.1700 ca         1 TV2      -0.054000
     14 C5           2.6960    -1.3320    -0.0870 ca         1 TV2      -0.077000
     15 C9          -0.2560     1.7450     0.1720 c3         1 TV2      -0.074400
     16 C10         -1.6750     1.2810     0.3260 ca         1 TV2      -0.072300
     17 C11         -2.2510     1.2090     1.5850 ca         1 TV2      -0.095000
     18 C12         -3.5670     0.7690     1.7740 ca         1 TV2      -0.097000
     19 C13         -4.2660     0.4090     0.6490 ca         1 TV2       0.056100
     20 C14         -3.6980     0.4810    -0.6140 ca         1 TV2       0.052100
     21 C15         -2.4110     0.9100    -0.8100 ca         1 TV2      -0.076000
     22 O2          -5.5330    -0.0640     0.5470 os         1 TV2      -0.344100
     23 C16         -5.8300    -0.1020    -0.8420 c5         1 TV2       0.373600
     24 O1          -4.5990     0.0580    -1.5350 os         1 TV2      -0.345100
     25 H5A          4.4720     3.8870    -0.0030 hn         1 TV2       0.478000
     26 H5B          5.7020     2.7310    -0.0600 hn         1 TV2       0.478000
     27 H91C         0.0320     2.3850     1.0110 hc         1 TV2       0.083700
     28 H92C        -0.1410     2.3680    -0.7200 hc         1 TV2       0.083700
     29 HA          -0.1550    -3.1620     0.1510 ha         1 TV2       0.137000
     30 H2           1.4980    -4.9930     0.0010 ha         1 TV2       0.120000
     31 H1           3.9120    -4.4860    -0.2040 ha         1 TV2       0.121000
     32 H6           4.6840    -2.1420    -0.2580 ha         1 TV2       0.137000
     33 H11         -1.6740     1.5050     2.4520 ha         1 TV2       0.118000
     34 H15         -1.9780     0.9630    -1.8010 ha         1 TV2       0.134000
     35 H12         -4.0050     0.7150     2.7610 ha         1 TV2       0.134000
     36 H161        -6.2760    -1.0630    -1.0980 h2         1 TV2       0.063700
     37 H162        -6.5100     0.7170    -1.1000 h2         1 TV2       0.063700
@<TRIPOS>BOND
     1     1     2 1   
     2     1    25 1   
     3     1    26 1   
     4     2     3 2   
     5     2     6 1   
     6     3     4 1   
     7     4     5 1   
     8     4     7 1   
     9     5     6 2   
    10     5    14 1   
    11     7     8 2   
    12     7    15 1   
    13     8     9 1   
    14     9    10 ar  
    15     9    14 ar  
    16    10    11 ar  
    17    10    29 1   
    18    11    12 ar  
    19    11    30 1   
    20    12    13 ar  
    21    12    31 1   
    22    13    14 ar  
    23    13    32 1   
    24    15    16 1   
    25    15    27 1   
    26    15    28 1   
    27    16    17 ar  
    28    16    21 ar  
    29    17    18 ar  
    30    17    33 1   
    31    18    19 ar  
    32    18    35 1   
    33    19    20 ar  
    34    19    22 1   
    35    20    21 ar  
    36    20    24 1   
    37    21    34 1   
    38    22    23 1   
    39    23    24 1   
    40    23    36 1   
    41    23    37 1   
@<TRIPOS>SUBSTRUCTURE
     1 TV2         1 TEMP              0 ****  ****    0 ROOT
