@<TRIPOS>MOLECULE
TV3
   73    78     1     0     0
SMALL
abcg2


@<TRIPOS>ATOM
      1 N1          31.4780     1.0950   -27.9550 n          1 TV3      -0.374800
      2 C4          27.8700    -1.0190   -28.1230 ca         1 TV3      -0.148000
      3 C5          29.0570    -0.3140   -27.9250 ca         1 TV3      -0.027300
      4 C6          29.0310     1.0810   -27.8680 ca         1 TV3      -0.122300
      5 C7          30.3570    -1.0750   -27.8160 c6         1 TV3      -0.012100
      6 C8          31.4810    -0.2000   -27.3110 cx         1 TV3       0.049400
      7 C10         32.3720     1.5610   -28.8620 c          1 TV3       0.619700
      8 C13         35.7740     0.1980   -29.7600 ca         1 TV3      -0.116500
      9 C15         34.1110    -1.3120   -30.6290 ca         1 TV3      -0.116500
     10 C17         30.3840     2.5500   -26.2740 ca         1 TV3      -0.136300
     11 C20         30.7210     3.7240   -23.7410 ca         1 TV3       0.147100
     12 C21         29.7120     2.7840   -23.9590 ca         1 TV3      -0.177000
     13 C22         29.5500     2.2090   -25.2110 ca         1 TV3      -0.059000
     14 C24         31.7990    -0.2490   -25.8330 cx         1 TV3      -0.119400
     15 C26         31.8090     5.4980   -20.7150 c5         1 TV3      -0.066700
     16 C28         33.7530     5.9170   -19.2980 c5         1 TV3       0.155800
     17 C1          27.8100     1.7400   -28.0170 ca         1 TV3      -0.058000
     18 C11         33.4310     0.6380   -29.3820 ca         1 TV3      -0.131600
     19 C12         34.7700     1.0030   -29.2370 ca         1 TV3      -0.077000
     20 C14         35.4460    -0.9610   -30.4580 ca         1 TV3      -0.097000
     21 C16         33.1050    -0.5190   -30.0850 ca         1 TV3      -0.077000
     22 C18         31.3800     3.4970   -26.0470 ca         1 TV3      -0.059000
     23 C19         31.5590     4.0850   -24.7990 ca         1 TV3      -0.177000
     24 C2          26.6290     1.0440   -28.2100 ca         1 TV3      -0.199000
     25 C23         32.7480    -0.8380   -26.8370 cx         1 TV3      -0.119400
     26 C25         31.8610     5.1630   -22.1920 c3         1 TV3       0.168600
     27 C27         32.8720     6.5740   -20.3650 c5         1 TV3      -0.077400
     28 C29         32.1930     4.3050   -19.8260 c5         1 TV3       0.161800
     29 C3          26.6620    -0.3510   -28.2610 ca         1 TV3       0.138100
     30 C31         35.6610     3.6640   -18.4060 c3         1 TV3      -0.078400
     31 C32         36.1840     2.6430   -17.3990 c3         1 TV3      -0.089100
     32 C9          30.2820     1.9070   -27.6510 c6         1 TV3       0.214300
     33 N2          33.6220     4.4870   -19.5790 n3         1 TV3      -0.724600
     34 O1          25.5350    -1.1010   -28.4480 oh         1 TV3      -0.539100
     35 O2          32.3380     2.7210   -29.2850 o          1 TV3      -0.606100
     36 O3          30.8110     4.2330   -22.4830 os         1 TV3      -0.361100
     37 H1          27.8830    -2.1020   -28.1710 ha         1 TV3       0.128000
     38 H2          30.6150    -1.4790   -28.7990 hc         1 TV3       0.059700
     39 H3          30.2320    -1.9320   -27.1520 hc         1 TV3       0.059700
     40 H4          36.8110     0.4780   -29.6270 ha         1 TV3       0.115500
     41 H5          33.8490    -2.2040   -31.1830 ha         1 TV3       0.115500
     42 H6          29.0650     2.5090   -23.1360 ha         1 TV3       0.122500
     43 H7          28.7680     1.4750   -25.3530 ha         1 TV3       0.124500
     44 H8          31.1950    -0.9060   -25.2210 hc         1 TV3       0.082700
     45 H9          32.1010     0.6720   -25.3590 hc         1 TV3       0.082700
     46 H10         30.8020     5.8440   -20.4770 hc         1 TV3       0.065700
     47 H11         34.7920     6.2400   -19.3480 h1         1 TV3       0.037700
     48 H12         33.3740     6.1490   -18.2870 h1         1 TV3       0.037700
     49 H13         27.7850     2.8230   -27.9750 ha         1 TV3       0.121000
     50 H14         35.0200     1.9090   -28.7010 ha         1 TV3       0.121500
     51 H15         36.2280    -1.5850   -30.8720 ha         1 TV3       0.114000
     52 H16         32.0690    -0.7970   -30.2200 ha         1 TV3       0.121500
     53 H17         32.0400     3.7770   -26.8580 ha         1 TV3       0.124500
     54 H18         32.3440     4.8140   -24.6630 ha         1 TV3       0.122500
     55 H19         25.6880     1.5690   -28.3260 ha         1 TV3       0.116000
     56 H20         32.8090    -1.9140   -26.9410 hc         1 TV3       0.082700
     57 H21         33.6810    -0.3210   -26.9980 hc         1 TV3       0.082700
     58 H22         32.8280     4.7170   -22.4440 h1         1 TV3       0.043200
     59 H23         31.7270     6.0640   -22.7980 h1         1 TV3       0.043200
     60 H24         33.4670     6.8200   -21.2470 hc         1 TV3       0.049200
     61 H25         32.4190     7.4990   -20.0080 hc         1 TV3       0.049200
     62 H26         31.6220     4.3390   -18.8830 h1         1 TV3       0.044700
     63 H27         32.0000     3.3400   -20.2970 h1         1 TV3       0.044700
     64 H28         33.6780     3.8400   -17.5680 h1         1 TV3       0.029700
     65 H29         33.8470     2.5850   -18.7980 h1         1 TV3       0.029700
     66 H30         36.1080     3.4840   -19.3890 hc         1 TV3       0.044700
     67 H31         35.9680     4.6670   -18.0990 hc         1 TV3       0.044700
     68 H32         37.2700     2.6970   -17.3100 hc         1 TV3       0.032700
     69 H33         35.7590     2.8160   -16.4070 hc         1 TV3       0.032700
     70 H34         35.9220     1.6250   -17.7000 hc         1 TV3       0.032700
     71 H35         30.2880     2.7090   -28.3860 h1         1 TV3       0.095700
     72 H37         24.7650    -0.5220   -28.5260 ho         1 TV3       0.463000
     73 C30         34.1430     3.6070   -18.5440 c3         1 TV3       0.169800
@<TRIPOS>BOND
     1     1     6 1   
     2     1     7 1   
     3     1    32 1   
     4     2     3 ar  
     5     2    29 ar  
     6     2    37 1   
     7     3     4 ar  
     8     3     5 1   
     9     4    17 ar  
    10     4    32 1   
    11     5     6 1   
    12     5    38 1   
    13     5    39 1   
    14     6    14 1   
    15     6    25 1   
    16     7    18 1   
    17     7    35 2   
    18     8    19 ar  
    19     8    20 ar  
    20     8    40 1   
    21     9    20 ar  
    22     9    21 ar  
    23     9    41 1   
    24    10    13 ar  
    25    10    22 ar  
    26    10    32 1   
    27    11    12 ar  
    28    11    23 ar  
    29    11    36 1   
    30    12    13 ar  
    31    12    42 1   
    32    13    43 1   
    33    14    25 1   
    34    14    44 1   
    35    14    45 1   
    36    15    26 1   
    37    15    27 1   
    38    15    28 1   
    39    15    46 1   
    40    16    27 1   
    41    16    33 1   
    42    16    47 1   
    43    16    48 1   
    44    17    24 ar  
    45    17    49 1   
    46    18    19 ar  
    47    18    21 ar  
    48    19    50 1   
    49    20    51 1   
    50    21    52 1   
    51    22    23 ar  
    52    22    53 1   
    53    23    54 1   
    54    24    29 ar  
    55    24    55 1   
    56    25    56 1   
    57    25    57 1   
    58    26    36 1   
    59    26    58 1   
    60    26    59 1   
    61    27    60 1   
    62    27    61 1   
    63    28    33 1   
    64    28    62 1   
    65    28    63 1   
    66    29    34 1   
    67    30    31 1   
    68    30    66 1   
    69    30    67 1   
    70    30    73 1   
    71    31    68 1   
    72    31    69 1   
    73    31    70 1   
    74    32    71 1   
    75    33    73 1   
    76    34    72 1   
    77    64    73 1   
    78    65    73 1   
@<TRIPOS>SUBSTRUCTURE
     1 TV3         1 TEMP              0 ****  ****    0 ROOT
