@<TRIPOS>MOLECULE
TV3
   73    78     1     0     0
SMALL
No Charge or Current Charge


@<TRIPOS>ATOM
      1 N1          31.4290     0.9140   -28.2540 n          1 TV3      -0.374800
      2 C4          27.5250    -0.8230   -28.2030 ca         1 TV3      -0.148000
      3 C5          28.8080    -0.2530   -28.0940 ca         1 TV3      -0.027300
      4 C6          28.9420     1.1470   -27.9360 ca         1 TV3      -0.122300
      5 C7          30.0410    -1.1540   -28.1650 c6         1 TV3      -0.012100
      6 C8          31.3380    -0.4550   -27.7180 cx         1 TV3       0.049400
      7 C10         32.4640     1.4170   -29.0890 c          1 TV3       0.619700
      8 C13         35.7060    -0.0450   -30.4930 ca         1 TV3      -0.116500
      9 C15         33.8890    -1.5480   -31.0790 ca         1 TV3      -0.116500
     10 C17         30.5750     2.3700   -26.3860 ca         1 TV3      -0.136300
     11 C20         31.0590     3.4300   -23.8060 ca         1 TV3       0.147100
     12 C21         30.2190     2.3190   -23.9680 ca         1 TV3      -0.177000
     13 C22         29.9740     1.7900   -25.2470 ca         1 TV3      -0.059000
     14 C24         31.7650    -0.7000   -26.2810 cx         1 TV3      -0.119400
     15 C26         32.1150     5.2660   -20.7260 c5         1 TV3      -0.066700
     16 C28         33.3720     6.0780   -18.8480 c5         1 TV3       0.155800
     17 C1          27.7870     1.9530   -27.8870 ca         1 TV3      -0.058000
     18 C11         33.4230     0.4720   -29.7790 ca         1 TV3      -0.131600
     19 C12         34.7940     0.8040   -29.8420 ca         1 TV3      -0.077000
     20 C14         35.2550    -1.2250   -31.1070 ca         1 TV3      -0.097000
     21 C16         32.9770    -0.7000   -30.4280 ca         1 TV3      -0.077000
     22 C18         31.4150     3.4890   -26.2190 ca         1 TV3      -0.059000
     23 C19         31.6590     4.0180   -24.9390 ca         1 TV3      -0.177000
     24 C2          26.5110     1.3750   -27.9950 ca         1 TV3      -0.199000
     25 C23         32.5450    -1.3250   -27.4000 cx         1 TV3      -0.119400
     26 C25         32.1130     5.0300   -22.2520 c3         1 TV3       0.168600
     27 C27         32.9620     6.4940   -20.2760 c5         1 TV3      -0.077400
     28 C29         32.7050     4.0890   -19.8810 c5         1 TV3       0.161800
     29 C3          26.3820    -0.0130   -28.1530 ca         1 TV3       0.138100
     30 C31         35.5840     4.4910   -17.3050 c3         1 TV3      -0.078400
     31 C32         36.1310     3.5890   -16.1810 c3         1 TV3      -0.089100
     32 C9          30.3260     1.8090   -27.7990 c6         1 TV3       0.214300
     33 N2          33.8320     4.7020   -19.1310 n3         1 TV3      -0.724600
     34 O1          25.1470    -0.5770   -28.2590 oh         1 TV3      -0.539100
     35 O2          32.5660     2.6210   -29.2970 o          1 TV3      -0.606100
     36 O3          31.2620     3.9020   -22.5260 os         1 TV3      -0.361100
     37 H1          27.4160    -1.8970   -28.3290 ha         1 TV3       0.128000
     38 H2          30.1570    -1.5070   -29.1970 hc         1 TV3       0.059700
     39 H3          29.8740    -2.0570   -27.5610 hc         1 TV3       0.059700
     40 H4          36.7620     0.2140   -30.5240 ha         1 TV3       0.115500
     41 H5          33.5350    -2.4510   -31.5710 ha         1 TV3       0.115500
     42 H6          29.7560     1.8630   -23.0970 ha         1 TV3       0.122500
     43 H7          29.3240     0.9240   -25.3440 ha         1 TV3       0.124500
     44 H8          31.1520    -1.3500   -25.6620 hc         1 TV3       0.082700
     45 H9          32.2440     0.1130   -25.7410 hc         1 TV3       0.082700
     46 H10         31.0680     5.4210   -20.4400 hc         1 TV3       0.065700
     47 H11         34.1660     6.7220   -18.4490 h1         1 TV3       0.037700
     48 H12         32.5200     6.0940   -18.1520 h1         1 TV3       0.037700
     49 H13         27.8800     3.0300   -27.7590 ha         1 TV3       0.121000
     50 H14         35.1550     1.7170   -29.3720 ha         1 TV3       0.121500
     51 H15         35.9610    -1.8810   -31.6120 ha         1 TV3       0.114000
     52 H16         31.9200    -0.9480   -30.4480 ha         1 TV3       0.121500
     53 H17         31.8840     3.9540   -27.0840 ha         1 TV3       0.124500
     54 H18         32.3130     4.8800   -24.8490 ha         1 TV3       0.122500
     55 H19         25.6300     2.0110   -27.9540 ha         1 TV3       0.116000
     56 H20         32.4500    -2.3980   -27.5470 hc         1 TV3       0.082700
     57 H21         33.5470    -0.9370   -27.5590 hc         1 TV3       0.082700
     58 H22         33.1400     4.8370   -22.5910 h1         1 TV3       0.043200
     59 H23         31.7380     5.9300   -22.7560 h1         1 TV3       0.043200
     60 H24         33.8460     6.6370   -20.9100 hc         1 TV3       0.049200
     61 H25         32.3920     7.4300   -20.2930 hc         1 TV3       0.049200
     62 H26         31.9390     3.6940   -19.1980 h1         1 TV3       0.044700
     63 H27         33.0490     3.2540   -20.5090 h1         1 TV3       0.044700
     64 H28         33.5290     3.8170   -17.2270 h1         1 TV3       0.029700
     65 H29         34.5600     2.8930   -18.3250 h1         1 TV3       0.029700
     66 H30         36.3650     4.6330   -18.0620 hc         1 TV3       0.044700
     67 H31         35.3570     5.4770   -16.8850 hc         1 TV3       0.044700
     68 H32         37.0230     4.0400   -15.7300 hc         1 TV3       0.032700
     69 H33         35.3800     3.4530   -15.3940 hc         1 TV3       0.032700
     70 H34         36.4050     2.6030   -16.5740 hc         1 TV3       0.032700
     71 H35         30.2910     2.6760   -28.4760 h1         1 TV3       0.095700
     72 H37         24.4760     0.1360   -28.2040 ho         1 TV3       0.463000
     73 C30         34.3220     3.9100   -17.9820 c3         1 TV3       0.169800
@<TRIPOS>BOND
     1     1     6 1   
     2     1     7 1   
     3     1    32 1   
     4     2     3 ar  
     5     2    29 ar  
     6     2    37 1   
     7     3     4 ar  
     8     3     5 1   
     9     4    17 ar  
    10     4    32 1   
    11     5     6 1   
    12     5    38 1   
    13     5    39 1   
    14     6    14 1   
    15     6    25 1   
    16     7    18 1   
    17     7    35 2   
    18     8    19 ar  
    19     8    20 ar  
    20     8    40 1   
    21     9    20 ar  
    22     9    21 ar  
    23     9    41 1   
    24    10    13 ar  
    25    10    22 ar  
    26    10    32 1   
    27    11    12 ar  
    28    11    23 ar  
    29    11    36 1   
    30    12    13 ar  
    31    12    42 1   
    32    13    43 1   
    33    14    25 1   
    34    14    44 1   
    35    14    45 1   
    36    15    26 1   
    37    15    27 1   
    38    15    28 1   
    39    15    46 1   
    40    16    27 1   
    41    16    33 1   
    42    16    47 1   
    43    16    48 1   
    44    17    24 ar  
    45    17    49 1   
    46    18    19 ar  
    47    18    21 ar  
    48    19    50 1   
    49    20    51 1   
    50    21    52 1   
    51    22    23 ar  
    52    22    53 1   
    53    23    54 1   
    54    24    29 ar  
    55    24    55 1   
    56    25    56 1   
    57    25    57 1   
    58    26    36 1   
    59    26    58 1   
    60    26    59 1   
    61    27    60 1   
    62    27    61 1   
    63    28    33 1   
    64    28    62 1   
    65    28    63 1   
    66    29    34 1   
    67    30    31 1   
    68    30    66 1   
    69    30    67 1   
    70    30    73 1   
    71    31    68 1   
    72    31    69 1   
    73    31    70 1   
    74    32    71 1   
    75    33    73 1   
    76    34    72 1   
    77    64    73 1   
    78    65    73 1   
@<TRIPOS>SUBSTRUCTURE
     1 TV3         1 TEMP              0 ****  ****    0 ROOT
