@<TRIPOS>MOLECULE
TV4
   41    42     1     0     0
SMALL
No Charge or Current Charge


@<TRIPOS>ATOM
      1 N1           4.2180     2.1710     1.4760 nb         1 TV4      -0.733000
      2 C2           5.2320     1.4670     0.9930 ca         1 TV4       0.614900
      3 C3           5.1190     0.4540     0.0260 ca         1 TV4      -0.127900
      4 C4           3.8420     0.1460    -0.4690 ca         1 TV4      -0.013000
      5 C5           2.7380     0.8740     0.0320 ca         1 TV4      -0.146000
      6 C6           2.9870     1.8740     0.9990 ca         1 TV4       0.369900
      7 N7           6.3870     1.8640     1.5410 nv         1 TV4      -1.040900
      8 Br8          6.6530    -0.5010    -0.6250 br         1 TV4      -0.082100
      9 N9           1.3890     0.6620    -0.3890 ns         1 TV4      -0.126000
     10 C10          0.8020    -0.2850    -1.2240 c          1 TV4       0.634700
     11 O11          1.4450    -1.1880    -1.7440 o          1 TV4      -0.551100
     12 C12         -0.6930    -0.1650    -1.4230 ca         1 TV4      -0.243600
     13 C13         -1.2780    -0.6150    -2.6280 ca         1 TV4       0.236000
     14 C14         -2.6590    -0.5120    -2.8380 ca         1 TV4      -0.160000
     15 C15         -3.4940     0.0320    -1.8500 ca         1 TV4      -0.013000
     16 C16         -2.9520     0.4770    -0.6270 ca         1 TV4       0.182000
     17 C17         -1.5500     0.3780    -0.4300 ca         1 TV4       0.195000
     18 F18         -1.0490     0.7740     0.7660 f          1 TV4      -0.165000
     19 F19         -0.5240    -1.1150    -3.6310 f          1 TV4      -0.154000
     20 N20         -3.7620     1.0190     0.3920 nu         1 TV4      -0.877100
     21 S21         -5.3660     0.7510     0.7420 s6         1 TV4       1.177100
     22 O22         -5.5660     1.3610     2.0570 o          1 TV4      -0.520500
     23 O23         -6.1280     1.2150    -0.4180 o          1 TV4      -0.520500
     24 C24         -5.5110    -1.0350     0.8940 c3         1 TV4      -0.337400
     25 C25         -6.9420    -1.5040     1.2510 c3         1 TV4      -0.044400
     26 C26         -7.0420    -3.0350     1.3740 c3         1 TV4      -0.085100
     27 H4           3.7370    -0.6300    -1.2220 ha         1 TV4       0.158000
     28 H6           2.1650     2.4610     1.4080 h4         1 TV4       0.019100
     29 HN7          6.3480     2.7600     2.0110 hn         1 TV4       0.481000
     30 HN7A         7.2390     1.6540     1.0320 hn         1 TV4       0.481000
     31 HN9          0.7310     1.3310    -0.0090 hn         1 TV4       0.160000
     32 H14         -3.0850    -0.8500    -3.7790 ha         1 TV4       0.152000
     33 H15         -4.5580     0.1060    -2.0510 ha         1 TV4       0.156000
     34 HN20        -3.3240     1.2410     1.2790 hn         1 TV4       0.501000
     35 H24         -5.1970    -1.4550    -0.0670 h1         1 TV4       0.097200
     36 H24A        -4.8000    -1.3350     1.6710 h1         1 TV4       0.097200
     37 H25         -7.2550    -1.0490     2.2000 hc         1 TV4       0.056700
     38 H25A        -7.6470    -1.1620     0.4830 hc         1 TV4       0.056700
     39 H26         -6.7680    -3.5190     0.4290 hc         1 TV4       0.038367
     40 H26A        -6.3720    -3.4060     2.1600 hc         1 TV4       0.038367
     41 H26B        -8.0660    -3.3330     1.6270 hc         1 TV4       0.038367
@<TRIPOS>BOND
     1     1     2 ar  
     2     1     6 ar  
     3     2     3 ar  
     4     2     7 1   
     5     3     4 ar  
     6     3     8 1   
     7     4     5 ar  
     8     4    27 1   
     9     5     6 ar  
    10     5     9 1   
    11     6    28 1   
    12     7    29 1   
    13     7    30 1   
    14     9    10 1   
    15     9    31 1   
    16    10    11 2   
    17    10    12 1   
    18    12    13 ar  
    19    12    17 ar  
    20    13    14 ar  
    21    13    19 1   
    22    14    15 ar  
    23    14    32 1   
    24    15    16 ar  
    25    15    33 1   
    26    16    17 ar  
    27    16    20 1   
    28    17    18 1   
    29    20    21 1   
    30    20    34 1   
    31    21    22 2   
    32    21    23 2   
    33    21    24 1   
    34    24    25 1   
    35    24    35 1   
    36    24    36 1   
    37    25    26 1   
    38    25    37 1   
    39    25    38 1   
    40    26    39 1   
    41    26    40 1   
    42    26    41 1   
@<TRIPOS>SUBSTRUCTURE
     1 TV4         1 TEMP              0 ****  ****    0 ROOT
