@<TRIPOS>MOLECULE
TV4
   41    42     1     0     0
SMALL
abcg2


@<TRIPOS>ATOM
      1 N1           4.0930     1.9390     1.1350 nb         1 TV4      -0.733000
      2 C2           4.8750     0.8640     1.0650 ca         1 TV4       0.614900
      3 C3           4.4060    -0.2910     0.4100 ca         1 TV4      -0.127900
      4 C4           3.1510    -0.3120    -0.1580 ca         1 TV4      -0.013000
      5 C5           2.3480     0.8230    -0.0540 ca         1 TV4      -0.146000
      6 C6           2.8820     1.9180     0.6110 ca         1 TV4       0.369900
      7 N7           6.0840     0.9360     1.6810 nv         1 TV4      -1.040900
      8 BR8          5.4880    -1.8310     0.3000 br         1 TV4      -0.082100
      9 N9           1.0630     0.9290    -0.6080 ns         1 TV4      -0.126000
     10 C10          0.1840    -0.0720    -0.7960 c          1 TV4       0.634700
     11 O11          0.3900    -1.2450    -0.5580 o          1 TV4      -0.551100
     12 C12         -1.1330     0.3870    -1.3570 ca         1 TV4      -0.243600
     13 C13         -1.3710     0.4000    -2.7200 ca         1 TV4       0.236000
     14 C14         -2.5930     0.7540    -3.2540 ca         1 TV4      -0.160000
     15 C15         -3.6160     1.1090    -2.3900 ca         1 TV4      -0.013000
     16 C16         -3.4330     1.0910    -1.0120 ca         1 TV4       0.182000
     17 C17         -2.1850     0.7220    -0.5280 ca         1 TV4       0.195000
     18 F18         -1.9850     0.6920     0.7920 f          1 TV4      -0.165000
     19 F19         -0.3660     0.0620    -3.5310 f          1 TV4      -0.154000
     20 N20         -4.4790     1.4500    -0.1370 nu         1 TV4      -0.877100
     21 S21         -5.7020     0.3540     0.1680 s6         1 TV4       1.177100
     22 O22         -6.6400     1.0490     1.0320 o          1 TV4      -0.520500
     23 O23         -6.1440    -0.1480    -1.1220 o          1 TV4      -0.520500
     24 C24         -4.9550    -0.9950     1.0730 c3         1 TV4      -0.337400
     25 C25         -5.9570    -2.1080     1.3550 c3         1 TV4      -0.044400
     26 C26         -5.2920    -3.2370     2.1310 c3         1 TV4      -0.085100
     27 H4           2.8080    -1.1930    -0.6780 ha         1 TV4       0.158000
     28 H6           2.2990     2.8280     0.7110 h4         1 TV4       0.019100
     29 HN7          6.3840     1.8660     1.9280 hn         1 TV4       0.481000
     30 HN7A         6.8310     0.3370     1.3740 hn         1 TV4       0.481000
     31 HN9          0.7440     1.8650    -0.8100 hn         1 TV4       0.160000
     32 H14         -2.7400     0.7670    -4.3250 ha         1 TV4       0.152000
     33 H15         -4.5720     1.4150    -2.7890 ha         1 TV4       0.156000
     34 HN20        -4.2160     1.9790     0.6880 hn         1 TV4       0.501000
     35 H24         -4.1240    -1.3630     0.4680 h1         1 TV4       0.097200
     36 H24A        -4.5550    -0.5700     1.9950 h1         1 TV4       0.097200
     37 H25         -6.8000    -1.7140     1.9250 hc         1 TV4       0.056700
     38 H25A        -6.3550    -2.4910     0.4140 hc         1 TV4       0.056700
     39 H26         -4.4480    -3.6510     1.5790 hc         1 TV4       0.038367
     40 H26A        -4.9240    -2.8910     3.0980 hc         1 TV4       0.038367
     41 H26B        -6.0000    -4.0450     2.3130 hc         1 TV4       0.038367
@<TRIPOS>BOND
     1     1     2 ar  
     2     1     6 ar  
     3     2     3 ar  
     4     2     7 1   
     5     3     4 ar  
     6     3     8 1   
     7     4     5 ar  
     8     4    27 1   
     9     5     6 ar  
    10     5     9 1   
    11     6    28 1   
    12     7    29 1   
    13     7    30 1   
    14     9    10 1   
    15     9    31 1   
    16    10    11 2   
    17    10    12 1   
    18    12    13 ar  
    19    12    17 ar  
    20    13    14 ar  
    21    13    19 1   
    22    14    15 ar  
    23    14    32 1   
    24    15    16 ar  
    25    15    33 1   
    26    16    17 ar  
    27    16    20 1   
    28    17    18 1   
    29    20    21 1   
    30    20    34 1   
    31    21    22 2   
    32    21    23 2   
    33    21    24 1   
    34    24    25 1   
    35    24    35 1   
    36    24    36 1   
    37    25    26 1   
    38    25    37 1   
    39    25    38 1   
    40    26    39 1   
    41    26    40 1   
    42    26    41 1   
@<TRIPOS>SUBSTRUCTURE
     1 TV4         1 TEMP              0 ****  ****    0 ROOT
