@<TRIPOS>MOLECULE
TV5
   61    65     1     0     0
SMALL
abcg2


@<TRIPOS>ATOM
      1 C1          22.7660     3.2120    10.8190 c3         1 TV5      -0.099100
      2 C2          22.5070     3.3580    12.3190 c3         1 TV5       0.223300
      3 C3          21.3690     2.4410    12.7760 c3         1 TV5      -0.099100
      4 C5          22.1890     4.8180    12.6510 ca         1 TV5      -0.081300
      5 C6          23.0410     5.5840    13.4470 ca         1 TV5      -0.055000
      6 C7          22.7030     6.9010    13.7080 ca         1 TV5      -0.128600
      7 C8          23.4330     7.9190    14.5100 c          1 TV5       0.574600
      8 O9          24.4870     7.7820    15.1150 o          1 TV5      -0.533000
      9 C12         23.7320    11.2830    14.1740 ca         1 TV5       0.323300
     10 C13         24.9570    10.9770    13.5820 ca         1 TV5      -0.138000
     11 C14         25.4940    11.8460    12.6480 ca         1 TV5      -0.071000
     12 C15         24.7780    12.9960    12.3480 ca         1 TV5       0.066000
     13 N18         23.0770    12.4150    13.9060 nb         1 TV5      -0.651000
     14 C19         21.4510     8.9370    13.6490 c5         1 TV5       0.463000
     15 C22         19.1480     9.0450    16.4950 cx         1 TV5       0.101000
     16 C24         17.6880     9.0650    16.1890 cx         1 TV5      -0.126900
     17 C25         18.2170     8.2060    17.3210 cx         1 TV5      -0.126900
     18 C26         21.5550     7.4910    13.2040 ca         1 TV5      -0.162300
     19 C27         20.7260     6.7280    12.4110 ca         1 TV5       0.203000
     20 C31         22.4840     9.8750    11.5580 ca         1 TV5      -0.062000
     21 C35         20.5170    11.8230    11.3230 ca         1 TV5      -0.110500
     22 C36         20.4560    10.8860    12.3500 ca         1 TV5      -0.062000
     23 O4          23.7260     2.9490    12.9530 oh         1 TV5      -0.657000
     24 N10         22.6920     9.0640    14.4420 n          1 TV5      -0.448800
     25 CL1         25.3570    14.1130    11.1410 cl         1 TV5      -0.191000
     26 C17         23.5860    13.2570    13.0090 ca         1 TV5       0.351900
     27 O20         20.3180     9.2090    14.4340 os         1 TV5      -0.434000
     28 O23         19.6520    10.2310    17.0670 oh         1 TV5      -0.677000
     29 F28         19.6030     7.2720    11.8910 f          1 TV5      -0.163000
     30 C29         21.0270     5.4070    12.1340 ca         1 TV5      -0.132000
     31 C30         21.4430     9.9180    12.4820 ca         1 TV5      -0.088300
     32 C32         22.5640    10.8050    10.5340 ca         1 TV5      -0.110500
     33 C33         21.5790    11.7800    10.4350 ca         1 TV5       0.134000
     34 CL2         21.6990    12.9890     9.1750 cl         1 TV5      -0.210000
     35 H38         23.0050     2.1720    10.5910 hc         1 TV5       0.048700
     36 H37         21.8880     3.5030    10.2440 hc         1 TV5       0.048700
     37 H39         23.6040     3.8420    10.5190 hc         1 TV5       0.048700
     38 H42         21.2190     2.5330    13.8540 hc         1 TV5       0.048700
     39 H41         20.4310     2.6880    12.2800 hc         1 TV5       0.048700
     40 H40         21.6230     1.4060    12.5410 hc         1 TV5       0.048700
     41 H44         23.9520     5.1620    13.8460 ha         1 TV5       0.149000
     42 H45         23.7300    10.0330    15.9260 h1         1 TV5       0.083700
     43 H46         22.1630    10.7560    15.5260 h1         1 TV5       0.083700
     44 H47         25.4680    10.0580    13.8320 ha         1 TV5       0.140000
     45 H48         26.4320    11.6320    12.1540 ha         1 TV5       0.135000
     46 H51         19.6770     7.4000    15.2320 h1         1 TV5       0.042700
     47 H50         21.0410     8.1590    16.0780 h1         1 TV5       0.042700
     48 H54         17.1490     9.9630    16.4590 hc         1 TV5       0.082450
     49 H53         17.3520     8.5750    15.2850 hc         1 TV5       0.082450
     50 H55         18.0330     8.5500    18.3300 hc         1 TV5       0.082450
     51 H56         18.2340     7.1320    17.1910 hc         1 TV5       0.082450
     52 H58         23.2620     9.1280    11.6480 ha         1 TV5       0.132500
     53 H60         19.7570    12.5860    11.2310 ha         1 TV5       0.132500
     54 H61         19.6440    10.9290    13.0600 ha         1 TV5       0.132500
     55 H43         23.5670     2.8540    13.9020 ho         1 TV5       0.444000
     56 H49         23.0260    14.1600    12.7960 h4         1 TV5       0.037100
     57 H52         20.3640     9.9960    17.6770 ho         1 TV5       0.502000
     58 H57         20.3460     4.8470    11.5070 ha         1 TV5       0.136000
     59 H59         23.3870    10.7860     9.8340 ha         1 TV5       0.132500
     60 C11         23.0600    10.3020    15.1090 c3         1 TV5       0.060700
     61 C21         20.0960     8.3540    15.5620 c3         1 TV5       0.169600
@<TRIPOS>BOND
     1     1     2 1   
     2     1    35 1   
     3     1    36 1   
     4     1    37 1   
     5     2     3 1   
     6     2     4 1   
     7     2    23 1   
     8     3    38 1   
     9     3    39 1   
    10     3    40 1   
    11     4     5 ar  
    12     4    30 ar  
    13     5     6 ar  
    14     5    41 1   
    15     6     7 1   
    16     6    18 ar  
    17     7     8 2   
    18     7    24 1   
    19     9    10 ar  
    20     9    13 ar  
    21     9    60 1   
    22    10    11 ar  
    23    10    44 1   
    24    11    12 ar  
    25    11    45 1   
    26    12    25 1   
    27    12    26 ar  
    28    13    26 ar  
    29    14    18 1   
    30    14    24 1   
    31    14    27 1   
    32    14    31 1   
    33    15    16 1   
    34    15    17 1   
    35    15    28 1   
    36    15    61 1   
    37    16    17 1   
    38    16    48 1   
    39    16    49 1   
    40    17    50 1   
    41    17    51 1   
    42    18    19 ar  
    43    19    29 1   
    44    19    30 ar  
    45    20    31 ar  
    46    20    32 ar  
    47    20    52 1   
    48    21    22 ar  
    49    21    33 ar  
    50    21    53 1   
    51    22    31 ar  
    52    22    54 1   
    53    23    55 1   
    54    24    60 1   
    55    26    56 1   
    56    27    61 1   
    57    28    57 1   
    58    30    58 1   
    59    32    33 ar  
    60    32    59 1   
    61    33    34 1   
    62    42    60 1   
    63    43    60 1   
    64    46    61 1   
    65    47    61 1   
@<TRIPOS>SUBSTRUCTURE
     1 TV5         1 TEMP              0 ****  ****    0 ROOT
