@<TRIPOS>MOLECULE
TV5
   61    65     1     0     0
SMALL
No Charge or Current Charge


@<TRIPOS>ATOM
      1 C1          23.3940     3.1710    11.4210 c3         1 TV5      -0.099100
      2 C2          22.2470     3.2910    12.4490 c3         1 TV5       0.223300
      3 C3          21.0100     2.5040    11.9520 c3         1 TV5      -0.099100
      4 C5          21.9670     4.7790    12.7560 ca         1 TV5      -0.081300
      5 C6          22.9490     5.5350    13.4470 ca         1 TV5      -0.055000
      6 C7          22.7010     6.8880    13.7170 ca         1 TV5      -0.128600
      7 C8          23.5500     7.8760    14.4100 c          1 TV5       0.574600
      8 O9          24.6620     7.6850    14.8800 o          1 TV5      -0.533000
      9 C12         23.8930    11.3650    14.0790 ca         1 TV5       0.323300
     10 C13         24.8310    11.0300    13.0820 ca         1 TV5      -0.138000
     11 C14         25.2230    12.0030    12.1460 ca         1 TV5      -0.071000
     12 C15         24.6620    13.2860    12.2490 ca         1 TV5       0.066000
     13 N18         23.3640    12.6080    14.1930 nb         1 TV5      -0.651000
     14 C19         21.5190     8.9790    13.7360 c5         1 TV5       0.463000
     15 C22         19.0760     8.9080    16.5990 cx         1 TV5       0.101000
     16 C24         17.7330     8.3200    16.2330 cx         1 TV5      -0.126900
     17 C25         18.3810     7.9630    17.5500 cx         1 TV5      -0.126900
     18 C26         21.5320     7.5120    13.3310 ca         1 TV5      -0.162300
     19 C27         20.5490     6.7950    12.6430 ca         1 TV5       0.203000
     20 C31         22.3420     9.6830    11.4180 ca         1 TV5      -0.062000
     21 C35         20.8900    12.0810    11.5150 ca         1 TV5      -0.110500
     22 C36         20.8110    11.1680    12.5810 ca         1 TV5      -0.062000
     23 O4          22.6800     2.6530    13.6510 oh         1 TV5      -0.657000
     24 N10         22.8390     9.0830    14.4230 n          1 TV5      -0.448800
     25 Cl1         25.1020    14.5420    11.0940 cl         1 TV5      -0.191000
     26 C17         23.7460    13.5450    13.2880 ca         1 TV5       0.351900
     27 O20         20.4440     9.2640    14.6610 os         1 TV5      -0.434000
     28 O23         19.0700    10.2610    16.9640 oh         1 TV5      -0.677000
     29 F28         19.4060     7.3980    12.2510 f          1 TV5      -0.163000
     30 C29         20.7650     5.4330    12.3560 ca         1 TV5      -0.132000
     31 C30         21.5420     9.9580    12.5520 ca         1 TV5      -0.088300
     32 C32         22.4200    10.5970    10.3540 ca         1 TV5      -0.110500
     33 C33         21.6980    11.7980    10.4050 ca         1 TV5       0.134000
     34 Cl2         21.8140    12.9520     9.0840 cl         1 TV5      -0.210000
     35 H38         23.6170     2.1190    11.2040 hc         1 TV5       0.048700
     36 H37         23.1190     3.6620    10.4800 hc         1 TV5       0.048700
     37 H39         24.3120     3.6410    11.7920 hc         1 TV5       0.048700
     38 H42         20.1750     2.5930    12.6580 hc         1 TV5       0.048700
     39 H41         20.6780     2.8690    10.9730 hc         1 TV5       0.048700
     40 H40         21.2450     1.4380    11.8430 hc         1 TV5       0.048700
     41 H44         23.8840     5.0800    13.7680 ha         1 TV5       0.149000
     42 H45         24.2110    10.0420    15.7340 h1         1 TV5       0.083700
     43 H46         22.6000    10.7520    15.6840 h1         1 TV5       0.083700
     44 H47         25.2310    10.0210    13.0250 ha         1 TV5       0.140000
     45 H48         25.9350    11.7680    11.3580 ha         1 TV5       0.135000
     46 H51         20.2420     7.3890    15.5980 h1         1 TV5       0.042700
     47 H50         21.2110     8.5780    16.4980 h1         1 TV5       0.042700
     48 H54         16.8660     8.9750    16.2560 hc         1 TV5       0.082450
     49 H53         17.7070     7.5590    15.4570 hc         1 TV5       0.082450
     50 H55         17.9490     8.3790    18.4570 hc         1 TV5       0.082450
     51 H56         18.7860     6.9600    17.6590 hc         1 TV5       0.082450
     52 H58         22.9240     8.7650    11.3670 ha         1 TV5       0.132500
     53 H60         20.3320    13.0130    11.5550 ha         1 TV5       0.132500
     54 H61         20.1930    11.4200    13.4400 ha         1 TV5       0.132500
     55 H43         21.9920     2.8350    14.3260 ho         1 TV5       0.444000
     56 H49         23.2980    14.5320    13.3960 h4         1 TV5       0.037100
     57 H52         19.4610    10.7360    16.1940 ho         1 TV5       0.502000
     58 H57         19.9870     4.9050    11.8140 ha         1 TV5       0.136000
     59 H59         23.0480    10.3790     9.4940 ha         1 TV5       0.132500
     60 C11         23.3870    10.3100    15.0610 c3         1 TV5       0.060700
     61 C21         20.3330     8.4540    15.8500 c3         1 TV5       0.169600
@<TRIPOS>BOND
     1     1     2 1   
     2     1    35 1   
     3     1    36 1   
     4     1    37 1   
     5     2     3 1   
     6     2     4 1   
     7     2    23 1   
     8     3    38 1   
     9     3    39 1   
    10     3    40 1   
    11     4     5 ar  
    12     4    30 ar  
    13     5     6 ar  
    14     5    41 1   
    15     6     7 1   
    16     6    18 ar  
    17     7     8 2   
    18     7    24 1   
    19     9    10 ar  
    20     9    13 ar  
    21     9    60 1   
    22    10    11 ar  
    23    10    44 1   
    24    11    12 ar  
    25    11    45 1   
    26    12    25 1   
    27    12    26 ar  
    28    13    26 ar  
    29    14    18 1   
    30    14    24 1   
    31    14    27 1   
    32    14    31 1   
    33    15    16 1   
    34    15    17 1   
    35    15    28 1   
    36    15    61 1   
    37    16    17 1   
    38    16    48 1   
    39    16    49 1   
    40    17    50 1   
    41    17    51 1   
    42    18    19 ar  
    43    19    29 1   
    44    19    30 ar  
    45    20    31 ar  
    46    20    32 ar  
    47    20    52 1   
    48    21    22 ar  
    49    21    33 ar  
    50    21    53 1   
    51    22    31 ar  
    52    22    54 1   
    53    23    55 1   
    54    24    60 1   
    55    26    56 1   
    56    27    61 1   
    57    28    57 1   
    58    30    58 1   
    59    32    33 ar  
    60    32    59 1   
    61    33    34 1   
    62    42    60 1   
    63    43    60 1   
    64    46    61 1   
    65    47    61 1   
@<TRIPOS>SUBSTRUCTURE
     1 TV5         1 TEMP              0 ****  ****    0 ROOT
