@<TRIPOS>MOLECULE
TV6
   24    24     1     0     0
SMALL
abcg2


@<TRIPOS>ATOM
      1 C10         33.3020   -13.1230    46.0460 ca         1 TV6      -0.134000
      2 C13         34.1260   -15.3460    46.6110 ca         1 TV6      -0.168500
      3 C01         35.6690   -20.2790    45.8600 c3         1 TV6      -0.089100
      4 C02         35.3130   -19.1400    44.9120 c3         1 TV6       0.158500
      5 C04         34.9170   -17.9080    45.7150 c3         1 TV6       0.119600
      6 C06         34.1160   -15.6910    45.2580 ca         1 TV6       0.163100
      7 C07         33.7040   -14.7620    44.2960 ca         1 TV6      -0.168500
      8 C08         33.3070   -13.5060    44.7080 ca         1 TV6       0.166500
      9 C11         33.7180   -14.0680    46.9700 ca         1 TV6       0.166500
     10 N03         36.4210   -18.8990    43.9800 n8         1 TV6      -0.992200
     11 O05         34.4860   -16.9020    44.7870 os         1 TV6      -0.356100
     12 CL09        32.7880   -12.3460    43.5050 cl         1 TV6      -0.198500
     13 CL12        33.7280   -13.6350    48.6650 cl         1 TV6      -0.198500
     14 H1          32.9890   -12.1360    46.3480 ha         1 TV6       0.149000
     15 H2          34.4360   -16.0440    47.3720 ha         1 TV6       0.142500
     16 H4          35.9090   -21.1780    45.2920 hc         1 TV6       0.043700
     17 H5          36.5400   -20.0150    46.4670 hc         1 TV6       0.043700
     18 H6          34.4450   -19.4330    44.3130 h1         1 TV6       0.076700
     19 H7          34.0990   -18.1390    46.4040 h1         1 TV6       0.043700
     20 H8          35.7730   -17.5380    46.2870 h1         1 TV6       0.043700
     21 H9          33.7000   -15.0400    43.2510 ha         1 TV6       0.142500
     22 H10         36.2040   -18.1000    43.3920 hn         1 TV6       0.400500
     23 H11         37.2550   -18.6460    44.5050 hn         1 TV6       0.400500
     24 H3          34.8400   -20.5040    46.5330 hc         1 TV6       0.043700
@<TRIPOS>BOND
     1     1     8 ar  
     2     1     9 ar  
     3     1    14 1   
     4     2     6 ar  
     5     2     9 ar  
     6     2    15 1   
     7     3     4 1   
     8     3    16 1   
     9     3    17 1   
    10     3    24 1   
    11     4     5 1   
    12     4    10 1   
    13     4    18 1   
    14     5    11 1   
    15     5    19 1   
    16     5    20 1   
    17     6     7 ar  
    18     6    11 1   
    19     7     8 ar  
    20     7    21 1   
    21     8    12 1   
    22     9    13 1   
    23    10    22 1   
    24    10    23 1   
@<TRIPOS>SUBSTRUCTURE
     1 TV6         1 TEMP              0 ****  ****    0 ROOT
