@<TRIPOS>MOLECULE
TV6
   24    24     1     0     0
SMALL
No Charge or Current Charge


@<TRIPOS>ATOM
      1 C10         33.2840   -13.0720    46.0250 ca         1 TV6      -0.134000
      2 C13         34.0810   -15.2930    46.6290 ca         1 TV6      -0.168500
      3 C01         35.7500   -20.3680    45.8370 c3         1 TV6      -0.089100
      4 C02         35.3020   -19.2030    44.9320 c3         1 TV6       0.158500
      5 C04         34.9270   -17.9360    45.7520 c3         1 TV6       0.119600
      6 C06         34.1200   -15.6510    45.2640 ca         1 TV6       0.163100
      7 C07         33.7410   -14.7140    44.2910 ca         1 TV6      -0.168500
      8 C08         33.3240   -13.4290    44.6700 ca         1 TV6       0.166500
      9 C11         33.6630   -14.0060    47.0010 ca         1 TV6       0.166500
     10 N03         36.3490   -18.9190    43.9210 n8         1 TV6      -0.992200
     11 O05         34.5210   -16.8990    44.8340 os         1 TV6      -0.356100
     12 Cl09        32.8510   -12.2640    43.4420 cl         1 TV6      -0.198500
     13 Cl12        33.6130   -13.5610    48.7020 cl         1 TV6      -0.198500
     14 H1          32.9610   -12.0770    46.3180 ha         1 TV6       0.149000
     15 H2          34.3670   -15.9930    47.4080 ha         1 TV6       0.142500
     16 H4          35.9720   -21.2610    45.2400 hc         1 TV6       0.043700
     17 H5          36.6480   -20.1010    46.4090 hc         1 TV6       0.043700
     18 H6          34.3960   -19.5240    44.3970 h1         1 TV6       0.076700
     19 H7          34.1090   -18.1820    46.4420 h1         1 TV6       0.043700
     20 H8          35.7940   -17.6110    46.3430 h1         1 TV6       0.043700
     21 H9          33.7700   -14.9860    43.2400 ha         1 TV6       0.142500
     22 H10         36.0750   -18.0600    43.4270 hn         1 TV6       0.400500
     23 H11         37.2100   -18.6400    44.4040 hn         1 TV6       0.400500
     24 H3          34.9570   -20.6270    46.5480 hc         1 TV6       0.043700
@<TRIPOS>BOND
     1     1     8 ar  
     2     1     9 ar  
     3     1    14 1   
     4     2     6 ar  
     5     2     9 ar  
     6     2    15 1   
     7     3     4 1   
     8     3    16 1   
     9     3    17 1   
    10     3    24 1   
    11     4     5 1   
    12     4    10 1   
    13     4    18 1   
    14     5    11 1   
    15     5    19 1   
    16     5    20 1   
    17     6     7 ar  
    18     6    11 1   
    19     7     8 ar  
    20     7    21 1   
    21     8    12 1   
    22     9    13 1   
    23    10    22 1   
    24    10    23 1   
@<TRIPOS>SUBSTRUCTURE
     1 TV6         1 TEMP              0 ****  ****    0 ROOT
