@<TRIPOS>MOLECULE
TV7
   86    90     1     0     0
SMALL
bcc


@<TRIPOS>ATOM
      1 C1          65.6130    28.7060     0.1240 c3         1 TV7      -0.133400
      2 N2          73.0130    34.4650    -1.1550 nc         1 TV7      -0.665000
      3 C3          67.9690    29.6470    -0.0390 c3         1 TV7      -0.139400
      4 C4          68.9170    30.7070    -0.5850 c3         1 TV7      -0.069400
      5 C5          70.3640    30.4290    -0.1940 c3         1 TV7      -0.077400
      6 C6          71.3410    31.4650    -0.7340 c3         1 TV7      -0.073400
      7 C9          73.6290    33.5050    -0.5140 cd         1 TV7       0.403800
      8 C10         73.7810    35.2720     0.8020 cd         1 TV7      -0.172600
      9 C11         74.1530    36.0210     1.9900 ca         1 TV7      -0.110300
     10 C12         74.4090    35.4020     3.1840 ca         1 TV7      -0.081000
     11 C13         74.8320    36.1360     4.3150 ca         1 TV7      -0.173300
     12 C18         74.9670    37.5330     4.1670 ca         1 TV7       0.445600
     13 C19         74.3090    37.4500     1.9750 ca         1 TV7       0.681600
     14 C20         74.1650    39.4620     0.7510 c3         1 TV7       0.133700
     15 C21         73.1010    35.5670    -0.3560 cc         1 TV7       0.353200
     16 C24         78.7880    31.6290    -1.4840 cx         1 TV7      -0.078400
     17 C25         78.6730    32.4270    -0.2400 cx         1 TV7      -0.071000
     18 C26         78.5650    33.9310    -0.2880 c6         1 TV7      -0.053400
     19 C28         78.1140    34.5820     3.3950 c3         1 TV7       0.170800
     20 C29         78.2040    36.0940     3.5020 c3         1 TV7      -0.092100
     21 N1          74.6890    38.1530     2.9930 nb         1 TV7      -0.766000
     22 C2          66.4930    29.8490    -0.4030 c3         1 TV7       0.367600
     23 C7          72.7770    31.1440    -0.3440 c3         1 TV7      -0.084400
     24 C8          73.8120    32.0870    -0.9640 c3         1 TV7       0.089400
     25 C14         75.1380    35.5320     5.5500 ca         1 TV7      -0.100000
     26 N3          75.1380    31.6200    -0.6160 ns         1 TV7      -0.595900
     27 O1          66.0190    31.0890     0.0560 oh         1 TV7      -0.580800
     28 C15         75.5740    36.2940     6.6030 ca         1 TV7      -0.138000
     29 O2          74.0390    38.0470     0.8200 os         1 TV7      -0.428100
     30 O3          76.1970    32.9380    -2.0970 o          1 TV7      -0.582100
     31 C22         76.2540    32.0980    -1.2080 c          1 TV7       0.700100
     32 C23         77.5200    31.5340    -0.6770 cx         1 TV7      -0.248700
     33 C31         79.3930    31.9860     1.0120 c6         1 TV7      -0.053400
     34 C30         78.7270    32.5850     2.2410 c6         1 TV7       0.170800
     35 N4          78.6720    34.0350     2.1700 n3         1 TV7      -0.715600
     36 C27         77.9450    34.4700     0.9920 c6         1 TV7       0.170800
     37 O           66.3290    29.9640    -1.7950 oh         1 TV7      -0.580800
     38 C           65.6030    28.5440     1.6390 c3         1 TV7      -0.088100
     39 N           74.0930    33.9400     0.6730 na         1 TV7      -0.295900
     40 C17         75.4100    38.2990     5.2630 ca         1 TV7      -0.178300
     41 C16         75.7100    37.6870     6.4550 ca         1 TV7      -0.111000
     42 H1          64.5920    28.8850    -0.2270 hc         1 TV7       0.053700
     43 H2          65.9400    27.7670    -0.3350 hc         1 TV7       0.053700
     44 H4          68.2810    28.6590    -0.3950 hc         1 TV7       0.042700
     45 H5          68.0680    29.6050     1.0520 hc         1 TV7       0.042700
     46 H6          68.6280    31.6950    -0.2140 hc         1 TV7       0.055700
     47 H7          68.8400    30.7510    -1.6740 hc         1 TV7       0.055700
     48 H8          70.6530    29.4370    -0.5570 hc         1 TV7       0.031700
     49 H9          70.4460    30.3870     0.8980 hc         1 TV7       0.031700
     50 H10         71.0620    32.4560    -0.3670 hc         1 TV7       0.057700
     51 H11         71.2620    31.5080    -1.8260 hc         1 TV7       0.057700
     52 H12         74.2790    34.3310     3.2880 ha         1 TV7       0.129000
     53 H13         73.9070    39.7320    -0.2690 h1         1 TV7       0.049700
     54 H14         73.4810    39.9580     1.4410 h1         1 TV7       0.049700
     55 H15         75.1820    39.7870     0.9690 h1         1 TV7       0.049700
     56 H16         72.6650    36.5070    -0.6490 h4         1 TV7       0.049100
     57 H17         79.4320    30.7570    -1.4940 hc         1 TV7       0.084700
     58 H18         78.7280    32.1540    -2.4300 hc         1 TV7       0.084700
     59 H19         79.5740    34.3410    -0.4000 hc         1 TV7       0.060450
     60 H20         77.9880    34.2740    -1.1450 hc         1 TV7       0.060450
     61 H21         77.0620    34.2720     3.5280 h1         1 TV7       0.021700
     62 H22         78.6650    34.1420     4.2310 h1         1 TV7       0.021700
     63 H23         77.8870    36.4070     4.4970 hc         1 TV7       0.041033
     64 H24         79.2270    36.4380     3.3440 hc         1 TV7       0.041033
     65 H25         77.5580    36.6080     2.7890 hc         1 TV7       0.041033
     66 H26         73.0190    30.1280    -0.6670 hc         1 TV7       0.040200
     67 H27         72.8770    31.1610     0.7470 hc         1 TV7       0.040200
     68 H28         73.6880    32.0740    -2.0510 h1         1 TV7       0.102700
     69 H29         75.0320    34.4580     5.6540 ha         1 TV7       0.129000
     70 H30         75.2210    30.9090     0.0940 hn         1 TV7       0.311500
     71 H31         66.3710    31.2580     0.9350 ho         1 TV7       0.413500
     72 H32         75.8160    35.8290     7.5490 ha         1 TV7       0.134000
     73 H33         77.4020    30.6360    -0.0780 hc         1 TV7       0.078700
     74 H34         79.4030    30.8970     1.0990 hc         1 TV7       0.060450
     75 H35         80.4360    32.3140     0.9650 hc         1 TV7       0.060450
     76 H36         77.7160    32.1510     2.3540 h1         1 TV7       0.027700
     77 H37         79.2870    32.3010     3.1350 h1         1 TV7       0.027700
     78 H39         77.9410    35.5600     0.9490 h1         1 TV7       0.027700
     79 H40         76.8850    34.1600     1.0410 h1         1 TV7       0.027700
     80 H41         66.5690    29.1250    -2.2020 ho         1 TV7       0.413500
     81 H42         64.8920    27.7720     1.9310 hc         1 TV7       0.034700
     82 H43         66.5770    28.2500     2.0310 hc         1 TV7       0.034700
     83 H44         65.3010    29.4640     2.1430 hc         1 TV7       0.034700
     84 H45         74.6500    33.3940     1.3130 hn         1 TV7       0.295700
     85 H46         75.5140    39.3700     5.1440 ha         1 TV7       0.149000
     86 H47         76.0550    38.2800     7.2920 ha         1 TV7       0.135000
@<TRIPOS>BOND
     1     1    22 1   
     2     1    38 1   
     3     1    42 1   
     4     1    43 1   
     5     2     7 2   
     6     2    15 1   
     7     3     4 1   
     8     3    22 1   
     9     3    44 1   
    10     3    45 1   
    11     4     5 1   
    12     4    46 1   
    13     4    47 1   
    14     5     6 1   
    15     5    48 1   
    16     5    49 1   
    17     6    23 1   
    18     6    50 1   
    19     6    51 1   
    20     7    24 1   
    21     7    39 1   
    22     8     9 1   
    23     8    15 2   
    24     8    39 1   
    25     9    10 ar  
    26     9    13 ar  
    27    10    11 ar  
    28    10    52 1   
    29    11    12 ar  
    30    11    25 ar  
    31    12    21 ar  
    32    12    40 ar  
    33    13    21 ar  
    34    13    29 1   
    35    14    29 1   
    36    14    53 1   
    37    14    54 1   
    38    14    55 1   
    39    15    56 1   
    40    16    17 1   
    41    16    32 1   
    42    16    57 1   
    43    16    58 1   
    44    17    18 1   
    45    17    32 1   
    46    17    33 1   
    47    18    36 1   
    48    18    59 1   
    49    18    60 1   
    50    19    20 1   
    51    19    35 1   
    52    19    61 1   
    53    19    62 1   
    54    20    63 1   
    55    20    64 1   
    56    20    65 1   
    57    22    27 1   
    58    22    37 1   
    59    23    24 1   
    60    23    66 1   
    61    23    67 1   
    62    24    26 1   
    63    24    68 1   
    64    25    28 ar  
    65    25    69 1   
    66    26    31 1   
    67    26    70 1   
    68    27    71 1   
    69    28    41 ar  
    70    28    72 1   
    71    30    31 2   
    72    31    32 1   
    73    32    73 1   
    74    33    34 1   
    75    33    74 1   
    76    33    75 1   
    77    34    35 1   
    78    34    76 1   
    79    34    77 1   
    80    35    36 1   
    81    36    78 1   
    82    36    79 1   
    83    37    80 1   
    84    38    81 1   
    85    38    82 1   
    86    38    83 1   
    87    39    84 1   
    88    40    41 ar  
    89    40    85 1   
    90    41    86 1   
@<TRIPOS>SUBSTRUCTURE
     1 TV7         1 TEMP              0 ****  ****    0 ROOT
