@<TRIPOS>MOLECULE
TV7
   86    90     1     0     0
SMALL
No Charge or Current Charge


@<TRIPOS>ATOM
      1 C1          65.6650    29.0110     0.2080 c3         1 TV7      -0.133400
      2 N2          73.9140    34.5420    -1.0670 nc         1 TV7      -0.665000
      3 C3          68.1330    29.8210     0.0740 c3         1 TV7      -0.139400
      4 C4          69.1730    30.8480    -0.4530 c3         1 TV7      -0.069400
      5 C5          70.6270    30.4590    -0.1010 c3         1 TV7      -0.077400
      6 C6          71.6680    31.4720    -0.6240 c3         1 TV7      -0.073400
      7 C9          74.0240    33.4770    -0.2930 cd         1 TV7       0.403800
      8 C10         74.0530    35.2300     1.0930 cd         1 TV7      -0.158000
      9 C11         74.1640    36.0510     2.3300 ca         1 TV7      -0.045000
     10 C12         74.3080    35.3930     3.5690 ca         1 TV7      -0.063000
     11 C13         74.4500    36.1520     4.7410 ca         1 TV7      -0.108000
     12 C18         74.4360    37.5630     4.6590 ca         1 TV7       0.315000
     13 C19         74.1610    37.4770     2.3450 ca         1 TV7       0.616300
     14 C20         74.0420    39.6040     1.1080 c3         1 TV7       0.156900
     15 C21         73.9210    35.6190    -0.2230 cc         1 TV7       0.287900
     16 C24         79.0900    31.0940    -1.6850 cx         1 TV7      -0.078400
     17 C25         78.7720    32.0300    -0.5420 cx         1 TV7      -0.071000
     18 C26         78.4220    33.4990    -0.8590 c6         1 TV7      -0.053400
     19 C28         77.8950    34.7960     2.7410 c3         1 TV7       0.170800
     20 C29         77.7460    36.3220     2.5720 c3         1 TV7      -0.092100
     21 N1          74.2900    38.2030     3.4810 nb         1 TV7      -0.766000
     22 C2          66.6430    30.1270    -0.2440 c3         1 TV7       0.414000
     23 C7          73.1220    31.0770    -0.2690 c3         1 TV7      -0.084400
     24 C8          74.1870    32.0580    -0.8140 c3         1 TV7       0.089400
     25 C14         74.6080    35.5070     5.9830 ca         1 TV7      -0.082000
     26 N3          75.5390    31.5480    -0.5270 ns         1 TV7      -0.528900
     27 O1          66.2670    31.3470     0.3450 oh         1 TV7      -0.643000
     28 C15         74.7520    36.2670     7.1550 ca         1 TV7      -0.120000
     29 O2          74.0270    38.1640     1.1570 os         1 TV7      -0.451300
     30 O3          76.2420    31.1740    -2.6690 o          1 TV7      -0.582100
     31 C22         76.4760    31.2070    -1.4700 c          1 TV7       0.633100
     32 C23         77.8220    30.8900    -0.8710 cx         1 TV7      -0.248700
     33 C31         79.5810    31.9630     0.7640 c6         1 TV7      -0.053400
     34 C30         78.8360    32.6780     1.9190 c6         1 TV7       0.170800
     35 N4          78.5240    34.0990     1.5920 n3         1 TV7      -0.715600
     36 C27         77.7250    34.1960     0.3340 c6         1 TV7       0.170800
     37 O           66.4860    30.3210    -1.6280 oh         1 TV7      -0.643000
     38 C           65.6610    28.6920     1.7240 c3         1 TV7      -0.088100
     39 N           74.0990    33.8440     1.0360 na         1 TV7      -0.295500
     40 C17         74.5820    38.3080     5.8440 ca         1 TV7      -0.095000
     41 C16         74.7390    37.6690     7.0860 ca         1 TV7      -0.093000
     42 H1          64.6440    29.2880    -0.0820 hc         1 TV7       0.053700
     43 H2          65.9010    28.0890    -0.3380 hc         1 TV7       0.053700
     44 H4          68.3790    28.8350    -0.3380 hc         1 TV7       0.042700
     45 H5          68.2570    29.7390     1.1610 hc         1 TV7       0.042700
     46 H6          68.9640    31.8400    -0.0360 hc         1 TV7       0.055700
     47 H7          69.0860    30.9330    -1.5440 hc         1 TV7       0.055700
     48 H8          70.8460    29.4690    -0.5200 hc         1 TV7       0.031700
     49 H9          70.7230    30.3740     0.9890 hc         1 TV7       0.031700
     50 H10         71.4430    32.4610    -0.2060 hc         1 TV7       0.057700
     51 H11         71.5740    31.5560    -1.7140 hc         1 TV7       0.057700
     52 H12         74.3210    34.3090     3.6300 ha         1 TV7       0.111000
     53 H13         73.9250    39.9510     0.0730 h1         1 TV7       0.049700
     54 H14         73.2210    40.0260     1.7020 h1         1 TV7       0.049700
     55 H15         74.9910    40.0000     1.4920 h1         1 TV7       0.049700
     56 H16         73.8470    36.6120    -0.6440 h4         1 TV7       0.049100
     57 H17         79.9000    30.3810    -1.5500 hc         1 TV7       0.084700
     58 H18         78.9950    31.4770    -2.6990 hc         1 TV7       0.084700
     59 H19         79.3470    34.0400    -1.1020 hc         1 TV7       0.060450
     60 H20         77.7870    33.5680    -1.7520 hc         1 TV7       0.060450
     61 H21         76.9040    34.3670     2.9400 h1         1 TV7       0.021700
     62 H22         78.5030    34.6270     3.6400 h1         1 TV7       0.021700
     63 H23         77.3730    36.7660     3.5020 hc         1 TV7       0.041033
     64 H24         78.7140    36.7800     2.3370 hc         1 TV7       0.041033
     65 H25         77.0370    36.5700     1.7750 hc         1 TV7       0.041033
     66 H26         73.3240    30.0780    -0.6750 hc         1 TV7       0.040200
     67 H27         73.2200    31.0010     0.8210 hc         1 TV7       0.040200
     68 H28         74.0580    32.1070    -1.9040 h1         1 TV7       0.102700
     69 H29         74.6190    34.4210     6.0430 ha         1 TV7       0.111000
     70 H30         75.8540    31.5180     0.4340 hn         1 TV7       0.311500
     71 H31         67.0560    31.9180     0.2720 ho         1 TV7       0.452500
     72 H32         74.8740    35.7690     8.1150 ha         1 TV7       0.116000
     73 H33         77.8200    30.0350    -0.2000 hc         1 TV7       0.078700
     74 H34         79.7780    30.9180     1.0400 hc         1 TV7       0.060450
     75 H35         80.5610    32.4360     0.6100 hc         1 TV7       0.060450
     76 H36         77.9080    32.1280     2.1370 h1         1 TV7       0.027700
     77 H37         79.4610    32.6260     2.8230 h1         1 TV7       0.027700
     78 H39         77.5550    35.2460     0.0590 h1         1 TV7       0.027700
     79 H40         76.7390    33.7400     0.4860 h1         1 TV7       0.027700
     80 H41         65.5310    30.2030    -1.7990 ho         1 TV7       0.452500
     81 H42         64.8960    27.9400     1.9490 hc         1 TV7       0.034700
     82 H43         66.6290    28.2900     2.0470 hc         1 TV7       0.034700
     83 H44         65.4400    29.5880     2.3150 hc         1 TV7       0.034700
     84 H45         74.1980    33.2020     1.8100 hn         1 TV7       0.346000
     85 H46         74.5730    39.3930     5.7960 ha         1 TV7       0.131000
     86 H47         74.8510    38.2600     7.9930 ha         1 TV7       0.117000
@<TRIPOS>BOND
     1     1    22 1   
     2     1    38 1   
     3     1    42 1   
     4     1    43 1   
     5     2     7 2   
     6     2    15 1   
     7     3     4 1   
     8     3    22 1   
     9     3    44 1   
    10     3    45 1   
    11     4     5 1   
    12     4    46 1   
    13     4    47 1   
    14     5     6 1   
    15     5    48 1   
    16     5    49 1   
    17     6    23 1   
    18     6    50 1   
    19     6    51 1   
    20     7    24 1   
    21     7    39 1   
    22     8     9 1   
    23     8    15 2   
    24     8    39 1   
    25     9    10 ar  
    26     9    13 ar  
    27    10    11 ar  
    28    10    52 1   
    29    11    12 ar  
    30    11    25 ar  
    31    12    21 ar  
    32    12    40 ar  
    33    13    21 ar  
    34    13    29 1   
    35    14    29 1   
    36    14    53 1   
    37    14    54 1   
    38    14    55 1   
    39    15    56 1   
    40    16    17 1   
    41    16    32 1   
    42    16    57 1   
    43    16    58 1   
    44    17    18 1   
    45    17    32 1   
    46    17    33 1   
    47    18    36 1   
    48    18    59 1   
    49    18    60 1   
    50    19    20 1   
    51    19    35 1   
    52    19    61 1   
    53    19    62 1   
    54    20    63 1   
    55    20    64 1   
    56    20    65 1   
    57    22    27 1   
    58    22    37 1   
    59    23    24 1   
    60    23    66 1   
    61    23    67 1   
    62    24    26 1   
    63    24    68 1   
    64    25    28 ar  
    65    25    69 1   
    66    26    31 1   
    67    26    70 1   
    68    27    71 1   
    69    28    41 ar  
    70    28    72 1   
    71    30    31 2   
    72    31    32 1   
    73    32    73 1   
    74    33    34 1   
    75    33    74 1   
    76    33    75 1   
    77    34    35 1   
    78    34    76 1   
    79    34    77 1   
    80    35    36 1   
    81    36    78 1   
    82    36    79 1   
    83    37    80 1   
    84    38    81 1   
    85    38    82 1   
    86    38    83 1   
    87    39    84 1   
    88    40    41 ar  
    89    40    85 1   
    90    41    86 1   
@<TRIPOS>SUBSTRUCTURE
     1 TV7         1 TEMP              0 ****  ****    0 ROOT
