@<TRIPOS>MOLECULE
TV8
   38    40     1     0     0
SMALL
bcc


@<TRIPOS>ATOM
      1 C10        -36.3470     5.1350    -7.3080 c3         1 TV8       0.108700
      2 C15        -33.2090     1.0720    -7.2980 ca         1 TV8       0.461800
      3 C17        -34.2570    -0.8500    -7.1320 ca         1 TV8       0.706900
      4 C01        -33.9010     3.4090    -7.8830 c5         1 TV8       0.228800
      5 C03        -33.6000     5.4000    -9.0330 c5         1 TV8       0.145100
      6 C04        -32.6180     6.0380    -9.9880 c3         1 TV8       0.149400
      7 C06        -33.4230     5.7620    -7.5650 c5         1 TV8       0.081100
      8 C08        -34.0540     4.5550    -6.8430 c5         1 TV8       0.071100
      9 C12        -31.6020     2.5560    -7.2920 cc         1 TV8       0.414700
     10 C14        -31.9880     0.5040    -6.9770 ca         1 TV8      -0.228200
     11 C19        -31.9930    -0.8830    -6.7210 ca         1 TV8       0.773200
     12 N11        -32.9470     2.3980    -7.4940 na         1 TV8      -0.260000
     13 N13        -30.9950     1.4490    -6.9810 nd         1 TV8      -0.560100
     14 N16        -34.3780     0.4400    -7.3880 nb         1 TV8      -0.749000
     15 N18        -33.1590    -1.5310    -6.8110 nb         1 TV8      -0.825000
     16 N20        -30.8890    -1.5560    -6.3950 nu         1 TV8      -0.858900
     17 O02        -33.4760     3.9820    -9.0850 os         1 TV8      -0.385600
     18 O05        -33.0260     5.7310   -11.3010 oh         1 TV8      -0.590800
     19 O07        -32.0450     5.8450    -7.2910 oh         1 TV8      -0.590800
     20 O09        -35.3670     4.7130    -6.3840 os         1 TV8      -0.384600
     21 H1         -37.3030     5.1040    -6.7870 h1         1 TV8       0.039033
     22 H2         -36.1880     6.1600    -7.6560 h1         1 TV8       0.039033
     23 H3         -36.4230     4.4810    -8.1830 h1         1 TV8       0.039033
     24 H5         -29.8420    -3.2600    -5.9070 h1         1 TV8       0.043033
     25 H6         -31.5000    -3.2480    -5.2990 h1         1 TV8       0.043033
     26 H7         -31.1890    -3.5490    -7.0110 h1         1 TV8       0.043033
     27 H8         -34.8530     2.8800    -8.0020 h2         1 TV8       0.110700
     28 H9         -34.6110     5.6950    -9.3450 h1         1 TV8       0.062700
     29 H10        -31.6040     5.6780    -9.7830 h1         1 TV8       0.037700
     30 H11        -32.6240     7.1210    -9.8030 h1         1 TV8       0.037700
     31 H12        -33.9340     6.7000    -7.3210 h1         1 TV8       0.064700
     32 H13        -33.4800     4.3200    -5.9430 h1         1 TV8       0.100700
     33 H14        -31.1290     3.5220    -7.3870 h5         1 TV8       0.078800
     34 H15        -30.0230    -1.0440    -6.3520 hn         1 TV8       0.459800
     35 H16        -32.3830     6.1050   -11.9100 ho         1 TV8       0.408000
     36 H17        -31.9260     6.0920    -6.3670 ho         1 TV8       0.415000
     37 H4         -35.1690    -1.4360    -7.1880 h5         1 TV8       0.044100
     38 C21        -30.8630    -2.9760    -6.1420 c3         1 TV8       0.224100
@<TRIPOS>BOND
     1     1    20 1   
     2     1    21 1   
     3     1    22 1   
     4     1    23 1   
     5     2    10 ar  
     6     2    12 1   
     7     2    14 ar  
     8     3    14 ar  
     9     3    15 ar  
    10     3    37 1   
    11     4     8 1   
    12     4    12 1   
    13     4    17 1   
    14     4    27 1   
    15     5     6 1   
    16     5     7 1   
    17     5    17 1   
    18     5    28 1   
    19     6    18 1   
    20     6    29 1   
    21     6    30 1   
    22     7     8 1   
    23     7    19 1   
    24     7    31 1   
    25     8    20 1   
    26     8    32 1   
    27     9    12 1   
    28     9    13 2   
    29     9    33 1   
    30    10    11 ar  
    31    10    13 1   
    32    11    15 ar  
    33    11    16 1   
    34    16    34 1   
    35    16    38 1   
    36    18    35 1   
    37    19    36 1   
    38    24    38 1   
    39    25    38 1   
    40    26    38 1   
@<TRIPOS>SUBSTRUCTURE
     1 TV8         1 TEMP              0 ****  ****    0 ROOT
