@<TRIPOS>MOLECULE
TV8
   38    40     1     0     0
SMALL
No Charge or Current Charge


@<TRIPOS>ATOM
      1 C10        -36.2410     5.1650    -7.0880 c3         1 TV8       0.131900
      2 C15        -33.1490     1.0400    -7.3790 ca         1 TV8       0.133500
      3 C17        -34.1690    -0.9690    -7.7640 ca         1 TV8       0.180900
      4 C01        -33.7040     3.4840    -7.7090 c5         1 TV8       0.281300
      5 C03        -33.6230     5.3630    -9.0760 c5         1 TV8       0.168300
      6 C04        -32.8880     6.0780   -10.2460 c3         1 TV8       0.172600
      7 C06        -33.3340     5.9410    -7.6470 c5         1 TV8       0.104300
      8 C08        -33.7640     4.7290    -6.7450 c5         1 TV8       0.094300
      9 C12        -31.5910     2.4850    -6.7040 cc         1 TV8       0.414700
     10 C14        -32.0720     0.3900    -6.8300 ca         1 TV8      -0.097600
     11 C19        -32.0990    -1.0200    -6.7710 ca         1 TV8       0.444900
     12 N11        -32.8500     2.3700    -7.3010 na         1 TV8      -0.289300
     13 N13        -31.0800     1.2770    -6.3980 nd         1 TV8      -0.560100
     14 N16        -34.2220     0.3810    -7.8580 nb         1 TV8      -0.223000
     15 N18        -33.1590    -1.7070    -7.2430 nb         1 TV8      -0.299000
     16 N20        -31.0390    -1.7360    -6.2260 nu         1 TV8      -0.914100
     17 O02        -33.2180     3.9820    -8.9720 os         1 TV8      -0.432000
     18 O05        -33.3950     5.6510   -11.5280 oh         1 TV8      -0.713000
     19 O07        -31.9500     6.2820    -7.4400 oh         1 TV8      -0.713000
     20 O09        -35.1170     4.9270    -6.2110 os         1 TV8      -0.431000
     21 H1         -37.1660     5.2320    -6.5020 h1         1 TV8       0.039033
     22 H2         -36.1290     6.1110    -7.6330 h1         1 TV8       0.039033
     23 H3         -36.3680     4.3530    -7.8150 h1         1 TV8       0.039033
     24 H5         -29.9560    -3.4600    -5.6200 h1         1 TV8       0.043033
     25 H6         -31.7250    -3.6010    -5.4740 h1         1 TV8       0.043033
     26 H7         -30.9540    -3.6800    -7.0790 h1         1 TV8       0.043033
     27 H8         -34.7070     3.0620    -7.8420 h2         1 TV8       0.110700
     28 H9         -34.6990     5.3940    -9.2910 h1         1 TV8       0.062700
     29 H10        -31.8110     5.8730   -10.1690 h1         1 TV8       0.037700
     30 H11        -33.0280     7.1610   -10.1320 h1         1 TV8       0.037700
     31 H12        -33.9610     6.8240    -7.4600 h1         1 TV8       0.064700
     32 H13        -33.0850     4.6110    -5.8910 h1         1 TV8       0.100700
     33 H14        -31.1140     3.4430    -6.5300 h5         1 TV8       0.078800
     34 H15        -30.2720    -1.1490    -5.8890 hn         1 TV8       0.515000
     35 H16        -32.8370     6.0850   -12.2160 ho         1 TV8       0.507000
     36 H17        -31.9020     6.8560    -6.6380 ho         1 TV8       0.514000
     37 H4         -35.0270    -1.5180    -8.1460 h5         1 TV8       0.044100
     38 C21        -30.9120    -3.1980    -6.0930 c3         1 TV8       0.224100
@<TRIPOS>BOND
     1     1    20 1   
     2     1    21 1   
     3     1    22 1   
     4     1    23 1   
     5     2    10 ar  
     6     2    12 1   
     7     2    14 ar  
     8     3    14 ar  
     9     3    15 ar  
    10     3    37 1   
    11     4     8 1   
    12     4    12 1   
    13     4    17 1   
    14     4    27 1   
    15     5     6 1   
    16     5     7 1   
    17     5    17 1   
    18     5    28 1   
    19     6    18 1   
    20     6    29 1   
    21     6    30 1   
    22     7     8 1   
    23     7    19 1   
    24     7    31 1   
    25     8    20 1   
    26     8    32 1   
    27     9    12 1   
    28     9    13 2   
    29     9    33 1   
    30    10    11 ar  
    31    10    13 1   
    32    11    15 ar  
    33    11    16 1   
    34    16    34 1   
    35    16    38 1   
    36    18    35 1   
    37    19    36 1   
    38    24    38 1   
    39    25    38 1   
    40    26    38 1   
@<TRIPOS>SUBSTRUCTURE
     1 TV8         1 TEMP              0 ****  ****    0 ROOT
