@<TRIPOS>MOLECULE
TV9
   28    29     1     0     0
SMALL
No Charge or Current Charge


@<TRIPOS>ATOM
      1 N1          18.7940    -8.7860   -26.3410 nb         1 TV9      -0.666000
      2 C4          11.5420    -8.9930   -23.6730 cx         1 TV9      -0.095900
      3 C5          12.9730    -9.2320   -23.2540 cx         1 TV9      -0.095900
      4 C6          16.4400    -8.9530   -26.9440 ca         1 TV9      -0.145300
      5 C7          16.5980   -10.3220   -27.2350 ca         1 TV9      -0.062000
      6 C8          17.8680   -10.8980   -27.0760 ca         1 TV9      -0.161000
      7 C10         17.5680    -8.2310   -26.4960 ca         1 TV9       0.345900
      8 N           14.4090    -8.2210   -25.7990 ns         1 TV9      -0.508900
      9 C           15.1360    -6.9040   -27.7690 c3         1 TV9      -0.103100
     10 O           12.2500    -8.1190   -26.5370 o          1 TV9      -0.607100
     11 C1          15.0740    -8.2920   -27.0960 c3         1 TV9       0.169000
     12 C3          12.6370    -8.0680   -24.1670 cx         1 TV9      -0.247700
     13 C9          18.9340   -10.0990   -26.6310 ca         1 TV9       0.333900
     14 H2          11.0990    -9.6910   -24.3810 hc         1 TV9       0.082700
     15 H3          13.4840   -10.0930   -23.6790 hc         1 TV9       0.082700
     16 H4          13.2420    -9.0090   -22.2240 hc         1 TV9       0.082700
     17 H5          15.7580   -10.9240   -27.5760 ha         1 TV9       0.119000
     18 H6          18.0310   -11.9500   -27.2930 ha         1 TV9       0.123000
     19 H7          17.4940    -7.1750   -26.2410 h4         1 TV9       0.015100
     20 H8          14.9760    -8.2370   -24.9610 hn         1 TV9       0.313500
     21 H9          14.1260    -6.5330   -27.9800 hc         1 TV9       0.045700
     22 H10         15.6360    -6.1700   -27.1270 hc         1 TV9       0.045700
     23 H11         15.6790    -6.9630   -28.7190 hc         1 TV9       0.045700
     24 H12         14.4650    -8.9360   -27.7470 h1         1 TV9       0.076700
     25 H13         12.6720    -7.0740   -23.7300 hc         1 TV9       0.081700
     26 H14         19.9290   -10.5240   -26.5000 h4         1 TV9       0.019100
     27 C2          13.0520    -8.1380   -25.6140 c          1 TV9       0.628100
     28 H1          10.8520    -8.6090   -22.9250 hc         1 TV9       0.082700
@<TRIPOS>BOND
     1     1     7 ar  
     2     1    13 ar  
     3     2     3 1   
     4     2    12 1   
     5     2    14 1   
     6     2    28 1   
     7     3    12 1   
     8     3    15 1   
     9     3    16 1   
    10     4     5 ar  
    11     4     7 ar  
    12     4    11 1   
    13     5     6 ar  
    14     5    17 1   
    15     6    13 ar  
    16     6    18 1   
    17     7    19 1   
    18     8    11 1   
    19     8    20 1   
    20     8    27 1   
    21     9    11 1   
    22     9    21 1   
    23     9    22 1   
    24     9    23 1   
    25    10    27 2   
    26    11    24 1   
    27    12    25 1   
    28    12    27 1   
    29    13    26 1   
@<TRIPOS>SUBSTRUCTURE
     1 TV9         1 TEMP              0 ****  ****    0 ROOT
