@<TRIPOS>MOLECULE
TV9
   28    29     1     0     0
SMALL
abcg2


@<TRIPOS>ATOM
      1 N1          18.1530    -9.4080   -25.5670 nb         1 TV9      -0.666000
      2 C4          11.6570    -8.8030   -23.5690 cx         1 TV9      -0.095900
      3 C5          12.9160    -9.0990   -22.8290 cx         1 TV9      -0.095900
      4 C6          16.2450    -8.9810   -26.9730 ca         1 TV9      -0.145300
      5 C7          16.7150    -9.9120   -27.8940 ca         1 TV9      -0.062000
      6 C8          17.9040   -10.5800   -27.6410 ca         1 TV9      -0.161000
      7 C10         17.0060    -8.7720   -25.8260 ca         1 TV9       0.345900
      8 N           14.2590    -7.8460   -26.0290 ns         1 TV9      -0.508900
      9 C           15.2670    -6.9290   -28.0420 c3         1 TV9      -0.103100
     10 O           13.4670    -9.9270   -25.6220 o          1 TV9      -0.607100
     11 C1          14.9720    -8.2010   -27.2470 c3         1 TV9       0.169000
     12 C3          12.9590    -8.2000   -24.0460 cx         1 TV9      -0.247700
     13 C9          18.5900   -10.2950   -26.4660 ca         1 TV9       0.333900
     14 H2          11.2380    -9.5890   -24.1830 hc         1 TV9       0.082700
     15 H3          13.3480   -10.0840   -22.9450 hc         1 TV9       0.082700
     16 H4          13.0800    -8.6260   -21.8700 hc         1 TV9       0.082700
     17 H5          16.1500   -10.1140   -28.7980 ha         1 TV9       0.119000
     18 H6          18.2930   -11.3120   -28.3360 ha         1 TV9       0.123000
     19 H7          16.6700    -8.0650   -25.0760 h4         1 TV9       0.015100
     20 H8          14.3450    -6.9020   -25.6860 hn         1 TV9       0.313500
     21 H9          14.3390    -6.4080   -28.2840 hc         1 TV9       0.045700
     22 H10         15.9090    -6.2590   -27.4650 hc         1 TV9       0.045700
     23 H11         15.7810    -7.1790   -28.9690 hc         1 TV9       0.045700
     24 H12         14.3150    -8.8430   -27.8360 h1         1 TV9       0.076700
     25 H13         13.1060    -7.1430   -23.8670 hc         1 TV9       0.081700
     26 H14         19.5210   -10.8000   -26.2370 h4         1 TV9       0.019100
     27 C2          13.5730    -8.7430   -25.2880 c          1 TV9       0.628100
     28 H1          10.9410    -8.1250   -23.1250 hc         1 TV9       0.082700
@<TRIPOS>BOND
     1     1     7 ar  
     2     1    13 ar  
     3     2     3 1   
     4     2    12 1   
     5     2    14 1   
     6     2    28 1   
     7     3    12 1   
     8     3    15 1   
     9     3    16 1   
    10     4     5 ar  
    11     4     7 ar  
    12     4    11 1   
    13     5     6 ar  
    14     5    17 1   
    15     6    13 ar  
    16     6    18 1   
    17     7    19 1   
    18     8    11 1   
    19     8    20 1   
    20     8    27 1   
    21     9    11 1   
    22     9    21 1   
    23     9    22 1   
    24     9    23 1   
    25    10    27 2   
    26    11    24 1   
    27    12    25 1   
    28    12    27 1   
    29    13    26 1   
@<TRIPOS>SUBSTRUCTURE
     1 TV9         1 TEMP              0 ****  ****    0 ROOT
