@<TRIPOS>MOLECULE
TVA
   40    40     1     0     0
SMALL
No Charge or Current Charge


@<TRIPOS>ATOM
      1 C19          2.6690     0.4440    -0.8100 c3         1 TVA      -0.053100
      2 C20          4.0180    -0.0070    -0.3010 cc         1 TVA      -0.188300
      3 C21          4.9140    -0.8440    -0.9180 cd         1 TVA      -0.152000
      4 C22          6.0990    -1.0630    -0.1660 cd         1 TVA      -0.130000
      5 N4           1.6020    -1.6480    -0.0470 n8         1 TVA      -0.971200
      6 C23          1.4710    -0.1710    -0.0360 c3         1 TVA       0.133500
      7 S2           4.6480     0.5490     1.2510 ss         1 TVA       0.182000
      8 C24          6.1200    -0.3910     1.0290 cc         1 TVA      -0.251000
      9 C25          0.0740     0.3120    -0.5670 c3         1 TVA       0.159300
     10 O6          -0.0070     1.7580    -0.5310 oh         1 TVA      -0.671000
     11 C26         -1.1220    -0.2950     0.2330 c3         1 TVA       0.146800
     12 N5          -2.4270     0.1970    -0.2770 n7         1 TVA      -0.825400
     13 C27         -3.6240    -0.1330     0.5690 c3         1 TVA       0.035500
     14 C28         -4.8680     0.6130     0.0160 c3         1 TVA      -0.064400
     15 C29         -4.7790     2.1570     0.1130 c3         1 TVA      -0.082400
     16 C30         -6.0500     2.8670    -0.3910 c3         1 TVA      -0.084100
     17 C31         -3.9080    -1.6840     0.7560 c          1 TVA       0.719000
     18 O7          -4.4980    -2.2970    -0.1270 o          1 TVA      -0.726000
     19 O8          -3.5500    -2.2150     1.8020 o          1 TVA      -0.726000
     20 H28          2.6200     1.5380    -0.7440 hc         1 TVA       0.061700
     21 H29          2.5740     0.2020    -1.8760 hc         1 TVA       0.061700
     22 H30          4.7350    -1.2990    -1.8880 ha         1 TVA       0.132000
     23 H31          6.9110    -1.7000    -0.5050 ha         1 TVA       0.127000
     24 H32          1.5300    -1.9830    -1.0130 hn         1 TVA       0.393000
     25 H33          1.5560     0.1490     1.0130 h1         1 TVA       0.053700
     26 H34          6.8870    -0.3740     1.7930 h4         1 TVA       0.143000
     27 H35         -0.0220    -0.0310    -1.6070 h1         1 TVA       0.084700
     28 H36          0.0170     2.0240     0.4130 ho         1 TVA       0.428000
     29 H37         -1.0820    -1.3910     0.1710 h1         1 TVA       0.048200
     30 H38         -1.0000    -0.0260     1.2920 h1         1 TVA       0.048200
     31 H39         -2.3570     1.2180    -0.3480 hn         1 TVA       0.369000
     32 H41         -3.4470     0.2670     1.5780 h1         1 TVA      -0.000300
     33 H42         -5.0380     0.3210    -1.0280 hc         1 TVA       0.050200
     34 H43         -5.7490     0.2830     0.5800 hc         1 TVA       0.050200
     35 H44         -4.6010     2.4450     1.1560 hc         1 TVA       0.024700
     36 H45         -3.9230     2.5170    -0.4700 hc         1 TVA       0.024700
     37 H46         -5.9410     3.9540    -0.3030 hc         1 TVA       0.019033
     38 H47         -6.2390     2.6250    -1.4440 hc         1 TVA       0.019033
     39 H48         -6.9240     2.5610     0.1970 hc         1 TVA       0.019033
     40 H2           2.5740    -1.8720     0.2000 hn         1 TVA       0.393000
@<TRIPOS>BOND
     1     1     2 1   
     2     1     6 1   
     3     1    20 1   
     4     1    21 1   
     5     2     3 2   
     6     2     7 1   
     7     3     4 1   
     8     3    22 1   
     9     4     8 2   
    10     4    23 1   
    11     5     6 1   
    12     5    24 1   
    13     5    40 1   
    14     6     9 1   
    15     6    25 1   
    16     7     8 1   
    17     8    26 1   
    18     9    10 1   
    19     9    11 1   
    20     9    27 1   
    21    10    28 1   
    22    11    12 1   
    23    11    29 1   
    24    11    30 1   
    25    12    13 1   
    26    12    31 1   
    27    13    14 1   
    28    13    17 1   
    29    13    32 1   
    30    14    15 1   
    31    14    33 1   
    32    14    34 1   
    33    15    16 1   
    34    15    35 1   
    35    15    36 1   
    36    16    37 1   
    37    16    38 1   
    38    16    39 1   
    39    17    18 1   
    40    17    19 1   
@<TRIPOS>SUBSTRUCTURE
     1 TVA         1 TEMP              0 ****  ****    0 ROOT
