@<TRIPOS>MOLECULE
TVA
   40    40     1     0     0
SMALL
bcc


@<TRIPOS>ATOM
      1 C19          2.6140     0.5270    -0.7790 c3         1 TVA      -0.053100
      2 C20          3.9430     0.0300    -0.3200 cc         1 TVA      -0.043400
      3 C21          4.7820    -0.8540    -0.9330 cd         1 TVA      -0.170000
      4 C22          5.9470    -1.1500    -0.1710 cd         1 TVA      -0.148000
      5 N4           1.4600    -1.6120    -0.1580 n8         1 TVA      -0.860800
      6 C23          1.4460    -0.1660    -0.0450 c3         1 TVA       0.133500
      7 S2           4.5840     0.4960     1.2140 ss         1 TVA      -0.107800
      8 C24          5.9740    -0.4910     1.0180 cc         1 TVA      -0.124100
      9 C25          0.0910     0.3620    -0.5380 c3         1 TVA       0.136100
     10 O6           0.0610     1.7770    -0.5750 oh         1 TVA      -0.608800
     11 C26         -1.0670    -0.1860     0.2860 c3         1 TVA       0.146800
     12 N5          -2.3400     0.2400    -0.2560 n7         1 TVA      -0.770200
     13 C27         -3.4680    -0.0750     0.5980 c3         1 TVA       0.035500
     14 C28         -4.7390     0.5930     0.0630 c3         1 TVA      -0.064400
     15 C29         -4.7230     2.1190     0.0800 c3         1 TVA      -0.082400
     16 C30         -6.0560     2.7090    -0.3630 c3         1 TVA      -0.084100
     17 C31         -3.7370    -1.5940     0.7210 c          1 TVA       0.929600
     18 O7          -3.3070    -2.3470    -0.1710 o          1 TVA      -0.831300
     19 O8          -4.4150    -1.9320     1.7150 o          1 TVA      -0.831300
     20 H28          2.5500     1.6080    -0.6480 hc         1 TVA       0.061700
     21 H29          2.5250     0.3340    -1.8520 hc         1 TVA       0.061700
     22 H30          4.5710    -1.2790    -1.9050 ha         1 TVA       0.150000
     23 H31          6.7280    -1.8220    -0.4980 ha         1 TVA       0.145000
     24 H32          1.4310    -1.8780    -1.1370 hn         1 TVA       0.337800
     25 H33          1.5320     0.0750     1.0230 h1         1 TVA       0.053700
     26 H34          6.7330    -0.5260     1.7840 h4         1 TVA       0.161000
     27 H35         -0.0430     0.0450    -1.5790 h1         1 TVA       0.084700
     28 H36          0.1340     2.1030     0.3290 ho         1 TVA       0.389000
     29 H37         -1.0180    -1.2730     0.2820 h1         1 TVA       0.048200
     30 H38         -0.9260     0.1290     1.3380 h1         1 TVA       0.048200
     31 H39         -2.3010     1.2450    -0.3710 hn         1 TVA       0.313800
     32 H41         -3.3070     0.3000     1.6260 h1         1 TVA      -0.000300
     33 H42         -4.9230     0.2400    -0.9580 hc         1 TVA       0.050200
     34 H43         -5.5820     0.2510     0.6690 hc         1 TVA       0.050200
     35 H44         -4.4830     2.4660     1.0890 hc         1 TVA       0.024700
     36 H45         -3.9350     2.5070    -0.5730 hc         1 TVA       0.024700
     37 H46         -6.0430     3.7990    -0.3290 hc         1 TVA       0.019033
     38 H47         -6.2960     2.4130    -1.3850 hc         1 TVA       0.019033
     39 H48         -6.8690     2.3660     0.2790 hc         1 TVA       0.019033
     40 H2           2.3360    -1.9760     0.1980 hn         1 TVA       0.337800
@<TRIPOS>BOND
     1     1     2 1   
     2     1     6 1   
     3     1    20 1   
     4     1    21 1   
     5     2     3 2   
     6     2     7 1   
     7     3     4 1   
     8     3    22 1   
     9     4     8 2   
    10     4    23 1   
    11     5     6 1   
    12     5    24 1   
    13     5    40 1   
    14     6     9 1   
    15     6    25 1   
    16     7     8 1   
    17     8    26 1   
    18     9    10 1   
    19     9    11 1   
    20     9    27 1   
    21    10    28 1   
    22    11    12 1   
    23    11    29 1   
    24    11    30 1   
    25    12    13 1   
    26    12    31 1   
    27    13    14 1   
    28    13    17 1   
    29    13    32 1   
    30    14    15 1   
    31    14    33 1   
    32    14    34 1   
    33    15    16 1   
    34    15    35 1   
    35    15    36 1   
    36    16    37 1   
    37    16    38 1   
    38    16    39 1   
    39    17    18 1   
    40    17    19 1   
@<TRIPOS>SUBSTRUCTURE
     1 TVA         1 TEMP              0 ****  ****    0 ROOT
