@<TRIPOS>MOLECULE
TVB
   39    41     1     0     0
SMALL
No Charge or Current Charge


@<TRIPOS>ATOM
      1 C01         17.4840    19.4690    -3.4670 c3         1 TVB      -0.095100
      2 C02         17.4300    19.8420    -1.9620 c6         1 TVB       0.239500
      3 C03         16.8820    18.6520    -1.1280 c6         1 TVB      -0.090400
      4 C04         16.4560    19.1040     0.2800 c6         1 TVB      -0.032100
      5 C05         15.3830    20.1720     0.1250 ca         1 TVB      -0.096300
      6 C06         14.2770    20.2010     0.9950 ca         1 TVB      -0.101000
      7 C07         13.2510    21.1390     0.7990 ca         1 TVB      -0.104000
      8 C08         13.3210    22.0340    -0.2800 ca         1 TVB      -0.104000
      9 C09         14.4280    22.0080    -1.1460 ca         1 TVB      -0.072000
     10 C10         15.4870    21.0980    -0.9400 ca         1 TVB       0.242000
     11 C14         18.0690    22.4370     0.0690 ca         1 TVB      -0.270500
     12 C15         17.2130    23.0000     1.0380 ca         1 TVB      -0.029500
     13 C16         17.5420    22.9240     2.4020 ca         1 TVB      -0.085000
     14 C17         18.7320    22.2870     2.8170 ca         1 TVB      -0.152600
     15 C18         19.5880    21.7310     1.8440 ca         1 TVB      -0.085000
     16 C19         19.2610    21.8040     0.4790 ca         1 TVB      -0.029500
     17 C20         19.0960    22.1960     4.2760 c          1 TVB       0.577500
     18 N11         16.6350    21.0980    -1.7790 nh         1 TVB      -0.760300
     19 O13         18.8260    22.2720    -2.4910 o          1 TVB      -0.531000
     20 O22         16.7680    23.6710    -1.9110 o          1 TVB      -0.531000
     21 S12         17.6240    22.5020    -1.6800 sy         1 TVB       1.165600
     22 H1          18.0740    18.5590    -3.6240 hc         1 TVB       0.050367
     23 H2          16.4790    19.2920    -3.8670 hc         1 TVB       0.050367
     24 H3          17.9430    20.2650    -4.0640 hc         1 TVB       0.050367
     25 H4          18.4640    19.9890    -1.6200 h1         1 TVB       0.046700
     26 H5          16.0140    18.2080    -1.6350 hc         1 TVB       0.055700
     27 H6          17.6420    17.8610    -1.0610 hc         1 TVB       0.055700
     28 H7          16.0770    18.2460     0.8520 hc         1 TVB       0.055700
     29 H8          17.3150    19.5080     0.8340 hc         1 TVB       0.055700
     30 H9          14.2050    19.4900     1.8150 ha         1 TVB       0.115000
     31 H10         12.3950    21.1580     1.4690 ha         1 TVB       0.117000
     32 H11         12.5170    22.7470    -0.4480 ha         1 TVB       0.121000
     33 H12         14.4570    22.6950    -1.9860 ha         1 TVB       0.138000
     34 H13         16.2870    23.4900     0.7410 ha         1 TVB       0.142000
     35 H14         16.8660    23.3590     3.1360 ha         1 TVB       0.129000
     36 H15         20.5110    21.2360     2.1440 ha         1 TVB       0.129000
     37 H16         19.9360    21.3640    -0.2530 ha         1 TVB       0.142000
     38 H17         20.0520    21.6760     4.5060 h4         1 TVB      -0.004800
     39 O1          18.4020    22.6560     5.1780 o          1 TVB      -0.502100
@<TRIPOS>BOND
     1     1     2 1   
     2     1    22 1   
     3     1    23 1   
     4     1    24 1   
     5     2     3 1   
     6     2    18 1   
     7     2    25 1   
     8     3     4 1   
     9     3    26 1   
    10     3    27 1   
    11     4     5 1   
    12     4    28 1   
    13     4    29 1   
    14     5     6 ar  
    15     5    10 ar  
    16     6     7 ar  
    17     6    30 1   
    18     7     8 ar  
    19     7    31 1   
    20     8     9 ar  
    21     8    32 1   
    22     9    10 ar  
    23     9    33 1   
    24    10    18 1   
    25    11    12 ar  
    26    11    16 ar  
    27    11    21 1   
    28    12    13 ar  
    29    12    34 1   
    30    13    14 ar  
    31    13    35 1   
    32    14    15 ar  
    33    14    17 1   
    34    15    16 ar  
    35    15    36 1   
    36    16    37 1   
    37    17    38 1   
    38    17    39 2   
    39    18    21 1   
    40    19    21 2   
    41    20    21 2   
@<TRIPOS>SUBSTRUCTURE
     1 TVB         1 TEMP              0 ****  ****    0 ROOT
