@<TRIPOS>MOLECULE
TVB
   39    41     1     0     0
SMALL
bcc


@<TRIPOS>ATOM
      1 C01         17.4520    19.4660    -3.1830 c3         1 TVB      -0.095100
      2 C02         17.4010    19.9110    -1.7320 c6         1 TVB       0.239500
      3 C03         16.8480    18.8210    -0.8130 c6         1 TVB      -0.090400
      4 C04         16.2780    19.4050     0.4760 c6         1 TVB      -0.032100
      5 C05         15.1330    20.2910     0.0890 ca         1 TVB      -0.096300
      6 C06         13.8830    20.2510     0.6900 ca         1 TVB      -0.119000
      7 C07         12.8410    21.0330     0.2070 ca         1 TVB      -0.122000
      8 C08         13.0350    21.8330    -0.9110 ca         1 TVB      -0.122000
      9 C09         14.2720    21.8670    -1.5360 ca         1 TVB      -0.090000
     10 C10         15.3220    21.1200    -1.0170 ca         1 TVB       0.103600
     11 C14         18.1660    22.4710     0.2130 ca         1 TVB      -0.270500
     12 C15         17.3670    22.8310     1.2960 ca         1 TVB      -0.047500
     13 C16         17.8560    22.6630     2.5780 ca         1 TVB      -0.103000
     14 C17         19.1360    22.1470     2.7750 ca         1 TVB      -0.152600
     15 C18         19.9300    21.8150     1.6830 ca         1 TVB      -0.103000
     16 C19         19.4500    21.9750     0.3920 ca         1 TVB      -0.047500
     17 C20         19.6750    21.9450     4.1360 c          1 TVB       0.577500
     18 N11         16.6130    21.1670    -1.6070 nh         1 TVB      -0.621900
     19 O13         18.5660    22.5280    -2.3830 o          1 TVB      -0.601800
     20 O22         16.5390    23.6730    -1.4380 o          1 TVB      -0.601800
     21 S12         17.4780    22.5700    -1.4230 sy         1 TVB       1.307200
     22 H1          18.0220    18.5410    -3.2700 hc         1 TVB       0.050367
     23 H2          16.4470    19.2820    -3.5650 hc         1 TVB       0.050367
     24 H3          17.9290    20.2170    -3.8100 hc         1 TVB       0.050367
     25 H4          18.4200    20.1190    -1.3960 h1         1 TVB       0.046700
     26 H5          16.0610    18.2610    -1.3250 hc         1 TVB       0.055700
     27 H6          17.6540    18.1140    -0.6070 hc         1 TVB       0.055700
     28 H7          15.9420    18.6130     1.1460 hc         1 TVB       0.055700
     29 H8          17.0510    19.9660     1.0100 hc         1 TVB       0.055700
     30 H9          13.7250    19.6010     1.5420 ha         1 TVB       0.133000
     31 H10         11.8740    21.0030     0.6920 ha         1 TVB       0.135000
     32 H11         12.2190    22.4240    -1.3060 ha         1 TVB       0.139000
     33 H12         14.4190    22.4690    -2.4220 ha         1 TVB       0.156000
     34 H13         16.3760    23.2380     1.1480 ha         1 TVB       0.160000
     35 H14         17.2410    22.9350     3.4260 ha         1 TVB       0.147000
     36 H15         20.9300    21.4270     1.8380 ha         1 TVB       0.147000
     37 H16         20.0750    21.7180    -0.4520 ha         1 TVB       0.160000
     38 H17         20.6990    21.5340     4.1690 h4         1 TVB      -0.004800
     39 O1          19.0660    22.1930     5.1470 o          1 TVB      -0.502100
@<TRIPOS>BOND
     1     1     2 1   
     2     1    22 1   
     3     1    23 1   
     4     1    24 1   
     5     2     3 1   
     6     2    18 1   
     7     2    25 1   
     8     3     4 1   
     9     3    26 1   
    10     3    27 1   
    11     4     5 1   
    12     4    28 1   
    13     4    29 1   
    14     5     6 ar  
    15     5    10 ar  
    16     6     7 ar  
    17     6    30 1   
    18     7     8 ar  
    19     7    31 1   
    20     8     9 ar  
    21     8    32 1   
    22     9    10 ar  
    23     9    33 1   
    24    10    18 1   
    25    11    12 ar  
    26    11    16 ar  
    27    11    21 1   
    28    12    13 ar  
    29    12    34 1   
    30    13    14 ar  
    31    13    35 1   
    32    14    15 ar  
    33    14    17 1   
    34    15    16 ar  
    35    15    36 1   
    36    16    37 1   
    37    17    38 1   
    38    17    39 2   
    39    18    21 1   
    40    19    21 2   
    41    20    21 2   
@<TRIPOS>SUBSTRUCTURE
     1 TVB         1 TEMP              0 ****  ****    0 ROOT
