@<TRIPOS>MOLECULE
TVC
   30    32     1     0     0
SMALL
No Charge or Current Charge


@<TRIPOS>ATOM
      1 C            4.4440    -0.7840     0.6990 c          1 TVC       0.713600
      2 O            5.5870    -0.3470     0.7090 o          1 TVC      -0.719000
      3 C1           3.3170     0.1360     0.2590 ca         1 TVC      -0.139600
      4 C10         -5.2970     0.8210     0.5050 ca         1 TVC      -0.123000
      5 C11         -5.5730    -0.5120     0.1550 ca         1 TVC      -0.126000
      6 C12         -4.5230    -1.3810    -0.1890 ca         1 TVC      -0.095000
      7 C13         -3.1930    -0.9180    -0.1820 ca         1 TVC      -0.045000
      8 C14         -2.1380    -1.7810    -0.5240 ca         1 TVC      -0.116000
      9 C15         -0.8120    -1.3140    -0.5150 ca         1 TVC      -0.085000
     10 C16          1.9750    -0.3170     0.2460 ca         1 TVC      -0.067000
     11 C2           3.5840     1.4640    -0.1430 ca         1 TVC      -0.073000
     12 C3           2.5390     2.3110    -0.5450 ca         1 TVC      -0.151000
     13 C4           1.2150     1.8480    -0.5520 ca         1 TVC      -0.119000
     14 C5           0.9060     0.5230    -0.1580 cp         1 TVC      -0.095000
     15 C6          -0.5080     0.0270    -0.1660 cp         1 TVC       0.016000
     16 C7          -1.5860     0.8830     0.1740 ca         1 TVC      -0.117000
     17 C8          -2.9160     0.4210     0.1680 ca         1 TVC      -0.031000
     18 C9          -3.9710     1.2870     0.5130 ca         1 TVC      -0.097000
     19 O1           4.1720    -1.9310     1.0270 o          1 TVC      -0.719000
     20 H7          -4.7430    -2.4110    -0.4580 ha         1 TVC       0.104000
     21 H8          -2.3410    -2.8140    -0.7990 ha         1 TVC       0.105000
     22 H9          -0.0140    -1.9950    -0.7960 ha         1 TVC       0.129000
     23 H10          1.7550    -1.3320     0.5670 ha         1 TVC       0.130000
     24 H            4.6030     1.8450    -0.1460 ha         1 TVC       0.128000
     25 H1           2.7580     3.3300    -0.8550 ha         1 TVC       0.087000
     26 H2           0.4250     2.5180    -0.8800 ha         1 TVC       0.086000
     27 H3          -1.3830     1.9120     0.4580 ha         1 TVC       0.114000
     28 H4          -3.7660     2.3200     0.7850 ha         1 TVC       0.107000
     29 H5          -6.1100     1.4930     0.7710 ha         1 TVC       0.100000
     30 H6          -6.5990    -0.8710     0.1500 ha         1 TVC       0.099000
@<TRIPOS>BOND
     1     1     2 1   
     2     1     3 1   
     3     1    19 1   
     4     3    10 ar  
     5     3    11 ar  
     6     4     5 ar  
     7     4    18 ar  
     8     4    29 1   
     9     5     6 ar  
    10     5    30 1   
    11     6     7 ar  
    12     6    20 1   
    13     7     8 ar  
    14     7    17 ar  
    15     8     9 ar  
    16     8    21 1   
    17     9    15 ar  
    18     9    22 1   
    19    10    14 ar  
    20    10    23 1   
    21    11    12 ar  
    22    11    24 1   
    23    12    13 ar  
    24    12    25 1   
    25    13    14 ar  
    26    13    26 1   
    27    14    15 1   
    28    15    16 ar  
    29    16    17 ar  
    30    16    27 1   
    31    17    18 ar  
    32    18    28 1   
@<TRIPOS>SUBSTRUCTURE
     1 TVC         1 TEMP              0 ****  ****    0 ROOT
