@<TRIPOS>MOLECULE
TVC
   30    32     1     0     0
SMALL
abcg2


@<TRIPOS>ATOM
      1 C            4.3680    -0.7820     0.7450 c          1 TVC       0.713600
      2 O            5.5220    -0.3130     0.7320 o          1 TVC      -0.719000
      3 C1           3.2530     0.1410     0.2650 ca         1 TVC      -0.139600
      4 C10         -5.2420     0.8100     0.5390 ca         1 TVC      -0.123000
      5 C11         -5.5190    -0.5220     0.1640 ca         1 TVC      -0.126000
      6 C12         -4.5020    -1.3640    -0.1940 ca         1 TVC      -0.095000
      7 C13         -3.1610    -0.9140    -0.1940 ca         1 TVC      -0.045000
      8 C14         -2.0820    -1.7540    -0.5530 ca         1 TVC      -0.116000
      9 C15         -0.7970    -1.2900    -0.5420 ca         1 TVC      -0.085000
     10 C16          1.9340    -0.2970     0.2440 ca         1 TVC      -0.067000
     11 C2           3.5330     1.4400    -0.1530 ca         1 TVC      -0.073000
     12 C3           2.5110     2.2780    -0.5750 ca         1 TVC      -0.151000
     13 C4           1.1980     1.8300    -0.5870 ca         1 TVC      -0.119000
     14 C5           0.8920     0.5320    -0.1750 cp         1 TVC      -0.095000
     15 C6          -0.5030     0.0490    -0.1750 cp         1 TVC       0.016000
     16 C7          -1.5430     0.8770     0.1770 ca         1 TVC      -0.117000
     17 C8          -2.8810     0.4250     0.1790 ca         1 TVC      -0.031000
     18 C9          -3.9540     1.2730     0.5470 ca         1 TVC      -0.097000
     19 O1           4.0300    -1.9240     1.1110 o          1 TVC      -0.719000
     20 H7          -4.7130    -2.3870    -0.4840 ha         1 TVC       0.104000
     21 H8          -2.2860    -2.7770    -0.8460 ha         1 TVC       0.105000
     22 H9           0.0090    -1.9490    -0.8400 ha         1 TVC       0.129000
     23 H10          1.7170    -1.3010     0.5850 ha         1 TVC       0.130000
     24 H            4.5560     1.7920    -0.1470 ha         1 TVC       0.128000
     25 H1           2.7370     3.2840    -0.9050 ha         1 TVC       0.087000
     26 H2           0.4120     2.4870    -0.9380 ha         1 TVC       0.086000
     27 H3          -1.3450     1.8970     0.4850 ha         1 TVC       0.114000
     28 H4          -3.7410     2.2960     0.8340 ha         1 TVC       0.107000
     29 H5          -6.0550     1.4660     0.8210 ha         1 TVC       0.100000
     30 H6          -6.5430    -0.8730     0.1590 ha         1 TVC       0.099000
@<TRIPOS>BOND
     1     1     2 1   
     2     1     3 1   
     3     1    19 1   
     4     3    10 ar  
     5     3    11 ar  
     6     4     5 ar  
     7     4    18 ar  
     8     4    29 1   
     9     5     6 ar  
    10     5    30 1   
    11     6     7 ar  
    12     6    20 1   
    13     7     8 ar  
    14     7    17 ar  
    15     8     9 ar  
    16     8    21 1   
    17     9    15 ar  
    18     9    22 1   
    19    10    14 ar  
    20    10    23 1   
    21    11    12 ar  
    22    11    24 1   
    23    12    13 ar  
    24    12    25 1   
    25    13    14 ar  
    26    13    26 1   
    27    14    15 1   
    28    15    16 ar  
    29    16    17 ar  
    30    16    27 1   
    31    17    18 ar  
    32    18    28 1   
@<TRIPOS>SUBSTRUCTURE
     1 TVC         1 TEMP              0 ****  ****    0 ROOT
