@<TRIPOS>MOLECULE
TVD
   36    36     1     0     0
SMALL
No Charge or Current Charge


@<TRIPOS>ATOM
      1 O7          27.2000   -10.0030     1.3150 o          1 TVD      -0.598100
      2 C7          26.3940   -10.6970     1.9170 c          1 TVD       0.607100
      3 C8          26.7280   -11.4050     3.2200 c3         1 TVD      -0.183100
      4 N2          25.1140   -10.9020     1.4520 ns         1 TVD      -0.513900
      5 C2          24.5570   -10.3440     0.1910 c6         1 TVD       0.029700
      6 C1          24.9510   -11.1940    -1.0590 c6         1 TVD       0.323700
      7 N1          26.3940   -11.2390    -1.2260 ns         1 TVD      -0.504900
      8 C9          27.0740   -12.0380    -2.1050 c          1 TVD       0.612100
      9 C10         28.5870   -11.8650    -2.0780 c3         1 TVD      -0.182100
     10 O9          26.5180   -12.8400    -2.8410 o          1 TVD      -0.596100
     11 C3          23.0060   -10.2620     0.2550 c6         1 TVD       0.124300
     12 O3          22.5790    -9.4460     1.3610 oh         1 TVD      -0.655000
     13 C4          22.4280    -9.6950    -1.0750 c6         1 TVD       0.149300
     14 C5          22.9610   -10.5350    -2.2790 c6         1 TVD       0.183300
     15 C6          22.5230    -9.9540    -3.6660 c3         1 TVD       0.175600
     16 O6          23.0850    -8.6560    -3.9640 oh         1 TVD      -0.712000
     17 O5          24.4110   -10.5800    -2.2410 os         1 TVD      -0.452000
     18 O4          20.9870    -9.6910    -1.0010 oh         1 TVD      -0.719000
     19 H81         27.7560   -11.2180     3.5490 hc         1 TVD       0.063700
     20 H82         25.9970   -11.1140     3.9820 hc         1 TVD       0.063700
     21 H83         26.5290   -12.4770     3.1030 hc         1 TVD       0.063700
     22 HN2         24.5400   -11.5360     1.9990 hn         1 TVD       0.309500
     23 H2          24.9550    -9.3270     0.0510 h1         1 TVD       0.109700
     24 H1          24.5680   -12.2210    -0.9560 h2         1 TVD       0.060700
     25 HN1         26.9500   -10.6450    -0.6210 hn         1 TVD       0.332500
     26 H11         29.1000   -12.5300    -2.7810 hc         1 TVD       0.064367
     27 H12         28.8280   -10.8130    -2.2640 hc         1 TVD       0.064367
     28 H13         28.9440   -12.0080    -1.0510 hc         1 TVD       0.064367
     29 H3          22.6220   -11.2850     0.3880 h1         1 TVD       0.035700
     30 HO3         23.2420    -9.5700     2.0760 ho         1 TVD       0.453000
     31 H4          22.7980    -8.6650    -1.1950 h1         1 TVD       0.078700
     32 H5          22.5750   -11.5630    -2.2030 h1         1 TVD       0.047700
     33 H61         21.4260    -9.9070    -3.6910 h1         1 TVD       0.037700
     34 H62         22.8280   -10.6760    -4.4360 h1         1 TVD       0.037700
     35 HO6         22.8050    -8.4250    -4.8800 ho         1 TVD       0.503000
     36 HO4         20.7900    -9.4200    -0.0710 ho         1 TVD       0.523000
@<TRIPOS>BOND
     1     1     2 2   
     2     2     3 1   
     3     2     4 1   
     4     3    19 1   
     5     3    20 1   
     6     3    21 1   
     7     4     5 1   
     8     4    22 1   
     9     5     6 1   
    10     5    11 1   
    11     5    23 1   
    12     6     7 1   
    13     6    17 1   
    14     6    24 1   
    15     7     8 1   
    16     7    25 1   
    17     8     9 1   
    18     8    10 2   
    19     9    26 1   
    20     9    27 1   
    21     9    28 1   
    22    11    12 1   
    23    11    13 1   
    24    11    29 1   
    25    12    30 1   
    26    13    14 1   
    27    13    18 1   
    28    13    31 1   
    29    14    15 1   
    30    14    17 1   
    31    14    32 1   
    32    15    16 1   
    33    15    33 1   
    34    15    34 1   
    35    16    35 1   
    36    18    36 1   
@<TRIPOS>SUBSTRUCTURE
     1 TVD         1 TEMP              0 ****  ****    0 ROOT
