@<TRIPOS>MOLECULE
TVD
   36    36     1     0     0
SMALL
abcg2


@<TRIPOS>ATOM
      1 O7          26.9340    -9.6220     1.6310 o          1 TVD      -0.598100
      2 C7          26.2740   -10.5930     1.9670 c          1 TVD       0.607100
      3 C8          26.6440   -11.4700     3.1370 c3         1 TVD      -0.183100
      4 N2          25.1450   -10.9720     1.3270 ns         1 TVD      -0.513900
      5 C2          24.6280   -10.3350     0.1430 c6         1 TVD       0.029700
      6 C1          25.0060   -11.1110    -1.1250 c6         1 TVD       0.323700
      7 N1          26.4190   -11.1430    -1.2820 ns         1 TVD      -0.504900
      8 C9          27.0770   -12.1360    -1.9290 c          1 TVD       0.612100
      9 C10         28.5650   -11.9250    -2.0370 c3         1 TVD      -0.182100
     10 O9          26.5080   -13.1090    -2.3940 o          1 TVD      -0.596100
     11 C3          23.1070   -10.2080     0.2400 c6         1 TVD       0.124300
     12 O3          22.7250    -9.3490     1.2850 oh         1 TVD      -0.655000
     13 C4          22.5320    -9.6460    -1.0540 c6         1 TVD       0.149300
     14 C5          23.0200   -10.4900    -2.2320 c6         1 TVD       0.183300
     15 C6          22.5260   -10.0090    -3.5790 c3         1 TVD       0.175600
     16 O6          22.9100    -8.6700    -3.7770 oh         1 TVD      -0.712000
     17 O5          24.4330   -10.4920    -2.2530 os         1 TVD      -0.452000
     18 O4          21.1270    -9.6810    -1.0500 oh         1 TVD      -0.719000
     19 H81         27.5270   -11.0820     3.6380 hc         1 TVD       0.063700
     20 H82         25.8270   -11.5290     3.8560 hc         1 TVD       0.063700
     21 H83         26.8540   -12.4860     2.7980 hc         1 TVD       0.063700
     22 HN2         24.7110   -11.8380     1.6110 hn         1 TVD       0.309500
     23 H2          25.0550    -9.3310     0.0750 h1         1 TVD       0.109700
     24 H1          24.6400   -12.1440    -1.0400 h2         1 TVD       0.060700
     25 HN1         26.9460   -10.3460    -0.9590 hn         1 TVD       0.332500
     26 H11         29.0590   -12.8530    -2.3140 hc         1 TVD       0.064367
     27 H12         28.7740   -11.1820    -2.8090 hc         1 TVD       0.064367
     28 H13         28.9940   -11.5580    -1.1050 hc         1 TVD       0.064367
     29 H3          22.6820   -11.2140     0.3890 h1         1 TVD       0.035700
     30 HO3         22.9030    -9.7830     2.1250 ho         1 TVD       0.453000
     31 H4          22.9040    -8.6180    -1.1800 h1         1 TVD       0.078700
     32 H5          22.6450   -11.5190    -2.1030 h1         1 TVD       0.047700
     33 H61         21.4390   -10.1350    -3.6090 h1         1 TVD       0.037700
     34 H62         22.9420   -10.6700    -4.3520 h1         1 TVD       0.037700
     35 HO6         22.4580    -8.3410    -4.5590 ho         1 TVD       0.503000
     36 HO4         20.8150    -9.1570    -0.3050 ho         1 TVD       0.523000
@<TRIPOS>BOND
     1     1     2 2   
     2     2     3 1   
     3     2     4 1   
     4     3    19 1   
     5     3    20 1   
     6     3    21 1   
     7     4     5 1   
     8     4    22 1   
     9     5     6 1   
    10     5    11 1   
    11     5    23 1   
    12     6     7 1   
    13     6    17 1   
    14     6    24 1   
    15     7     8 1   
    16     7    25 1   
    17     8     9 1   
    18     8    10 2   
    19     9    26 1   
    20     9    27 1   
    21     9    28 1   
    22    11    12 1   
    23    11    13 1   
    24    11    29 1   
    25    12    30 1   
    26    13    14 1   
    27    13    18 1   
    28    13    31 1   
    29    14    15 1   
    30    14    17 1   
    31    14    32 1   
    32    15    16 1   
    33    15    33 1   
    34    15    34 1   
    35    16    35 1   
    36    18    36 1   
@<TRIPOS>SUBSTRUCTURE
     1 TVD         1 TEMP              0 ****  ****    0 ROOT
