@<TRIPOS>MOLECULE
TVF
   70    75     1     0     0
SMALL
No Charge or Current Charge


@<TRIPOS>ATOM
      1 N1          -8.2030    -5.3740    15.1210 n          1 TVF      -0.373800
      2 C4          -8.9320    -1.1710    15.3760 ca         1 TVF      -0.147000
      3 C5          -8.7230    -2.5630    15.4130 ca         1 TVF      -0.029300
      4 C6          -7.4730    -3.0730    15.8370 ca         1 TVF      -0.122300
      5 C7          -9.8460    -3.5060    14.9770 c6         1 TVF      -0.011100
      6 C8          -9.5980    -4.9740    15.3680 cx         1 TVF       0.050400
      7 C10        -10.2720    -5.4460    16.6450 cx         1 TVF      -0.119900
      8 C13         -8.7270    -7.0420    13.2640 ca         1 TVF      -0.131600
      9 C15         -9.5840    -9.0370    12.1360 ca         1 TVF      -0.117500
     10 C17        -10.4320    -6.8450    11.5190 ca         1 TVF      -0.117500
     11 C20         -6.2510    -6.2130    17.6240 ca         1 TVF      -0.057000
     12 C21         -6.1120    -6.6980    18.9370 ca         1 TVF      -0.177500
     13 C22         -6.7940    -6.0680    19.9980 ca         1 TVF       0.147100
     14 C24         -7.7480    -4.4720    18.4220 ca         1 TVF      -0.057000
     15 C26         -5.9680    -7.8280    23.2230 c3         1 TVF       0.170800
     16 C28         -4.8870    -4.7740    25.1820 c5         1 TVF      -0.078400
     17 C1          -6.4530    -2.1790    16.2200 ca         1 TVF      -0.057000
     18 C11        -10.7780    -5.9330    15.3200 cx         1 TVF      -0.119900
     19 C12         -7.7750    -6.4280    14.2670 c          1 TVF       0.619700
     20 C14         -8.7240    -8.4410    13.0740 ca         1 TVF      -0.076000
     21 C16        -10.4430    -8.2400    11.3620 ca         1 TVF      -0.096000
     22 C18         -9.5720    -6.2480    12.4580 ca         1 TVF      -0.076000
     23 C19         -7.0710    -5.1000    17.3530 ca         1 TVF      -0.138300
     24 C2          -6.6720    -0.7920    16.1820 ca         1 TVF      -0.198000
     25 C23         -7.6080    -4.9580    19.7320 ca         1 TVF      -0.177500
     26 C25         -5.8720    -7.6190    21.6880 c3         1 TVF       0.162600
     27 C27         -5.5780    -5.4420    23.9540 c5         1 TVF       0.159800
     28 C29         -4.3150    -5.9750    25.9980 c5         1 TVF      -0.068700
     29 C3          -7.9110    -0.2900    15.7600 ca         1 TVF       0.138100
     30 C30         -5.2170    -7.1340    25.5130 c5         1 TVF       0.157800
     31 C31         -4.2920    -5.7650    27.5270 c3         1 TVF      -0.084100
     32 C9          -7.2070    -4.5900    15.9060 c6         1 TVF       0.214300
     33 N2          -5.1920    -6.8720    24.0610 n3         1 TVF      -0.721600
     34 O1          -6.6150    -6.8250    14.3020 o          1 TVF      -0.608100
     35 O2          -8.1270     1.0540    15.7200 oh         1 TVF      -0.539100
     36 O3          -6.6970    -6.4980    21.3050 os         1 TVF      -0.361100
     37 H1          -9.8880    -0.7730    15.0470 ha         1 TVF       0.127000
     38 H2          -9.9590    -3.4340    13.8890 hc         1 TVF       0.059700
     39 H3         -10.8000    -3.1610    15.3980 hc         1 TVF       0.059700
     40 H4         -10.8870    -4.7400    17.1970 hc         1 TVF       0.082200
     41 H5          -9.7470    -6.1670    17.2670 hc         1 TVF       0.082200
     42 H6          -9.5820   -10.1170    12.0070 ha         1 TVF       0.116000
     43 H7         -11.0820    -6.2240    10.9070 ha         1 TVF       0.116000
     44 H8          -5.7170    -6.7080    16.8150 ha         1 TVF       0.125500
     45 H9          -5.4720    -7.5590    19.1070 ha         1 TVF       0.122500
     46 H10         -8.3900    -3.6130    18.2420 ha         1 TVF       0.125500
     47 H11         -7.0280    -7.8090    23.5110 h1         1 TVF       0.042700
     48 H12         -5.6080    -8.8450    23.4310 h1         1 TVF       0.042700
     49 H14         -5.6150    -4.1930    25.7600 hc         1 TVF       0.046700
     50 H15         -5.4900    -2.5630    16.5540 ha         1 TVF       0.121000
     51 H16        -11.7320    -5.5480    14.9680 hc         1 TVF       0.082200
     52 H17        -10.6120    -6.9840    15.1010 hc         1 TVF       0.082200
     53 H18         -8.0610    -9.0680    13.6660 ha         1 TVF       0.121500
     54 H19        -11.1080    -8.7020    10.6350 ha         1 TVF       0.114000
     55 H20         -9.5510    -5.1660    12.5400 ha         1 TVF       0.121500
     56 H21         -5.8750    -0.1160    16.4820 ha         1 TVF       0.116000
     57 H22         -8.1360    -4.4710    20.5480 ha         1 TVF       0.122500
     58 H23         -6.2230    -8.5300    21.1880 h1         1 TVF       0.045200
     59 H24         -4.8230    -7.4530    21.4090 h1         1 TVF       0.045200
     60 H25         -5.2460    -4.9940    23.0070 h1         1 TVF       0.044200
     61 H26         -6.6690    -5.3210    24.0180 h1         1 TVF       0.044200
     62 H27         -3.2790    -6.1690    25.6960 hc         1 TVF       0.056700
     63 H28         -6.2350    -7.0670    25.9250 h1         1 TVF       0.034200
     64 H29         -4.7990    -8.1180    25.7690 h1         1 TVF       0.034200
     65 H30         -3.6590    -4.9100    27.7960 hc         1 TVF       0.034033
     66 H31         -5.2990    -5.5750    27.9180 hc         1 TVF       0.034033
     67 H32         -3.8950    -6.6500    28.0390 hc         1 TVF       0.034033
     68 H33         -6.2220    -4.7230    15.4340 h1         1 TVF       0.095700
     69 H35         -7.3100     1.5070    16.0190 ho         1 TVF       0.463000
     70 H13         -4.0930    -4.0830    24.8790 hc         1 TVF       0.046700
@<TRIPOS>BOND
     1     1     6 1   
     2     1    19 1   
     3     1    32 1   
     4     2     3 ar  
     5     2    29 ar  
     6     2    37 1   
     7     3     4 ar  
     8     3     5 1   
     9     4    17 ar  
    10     4    32 1   
    11     5     6 1   
    12     5    38 1   
    13     5    39 1   
    14     6     7 1   
    15     6    18 1   
    16     7    18 1   
    17     7    40 1   
    18     7    41 1   
    19     8    19 1   
    20     8    20 ar  
    21     8    22 ar  
    22     9    20 ar  
    23     9    21 ar  
    24     9    42 1   
    25    10    21 ar  
    26    10    22 ar  
    27    10    43 1   
    28    11    12 ar  
    29    11    23 ar  
    30    11    44 1   
    31    12    13 ar  
    32    12    45 1   
    33    13    25 ar  
    34    13    36 1   
    35    14    23 ar  
    36    14    25 ar  
    37    14    46 1   
    38    15    26 1   
    39    15    33 1   
    40    15    47 1   
    41    15    48 1   
    42    16    27 1   
    43    16    28 1   
    44    16    49 1   
    45    16    70 1   
    46    17    24 ar  
    47    17    50 1   
    48    18    51 1   
    49    18    52 1   
    50    19    34 2   
    51    20    53 1   
    52    21    54 1   
    53    22    55 1   
    54    23    32 1   
    55    24    29 ar  
    56    24    56 1   
    57    25    57 1   
    58    26    36 1   
    59    26    58 1   
    60    26    59 1   
    61    27    33 1   
    62    27    60 1   
    63    27    61 1   
    64    28    30 1   
    65    28    31 1   
    66    28    62 1   
    67    29    35 1   
    68    30    33 1   
    69    30    63 1   
    70    30    64 1   
    71    31    65 1   
    72    31    66 1   
    73    31    67 1   
    74    32    68 1   
    75    35    69 1   
@<TRIPOS>SUBSTRUCTURE
     1 TVF         1 TEMP              0 ****  ****    0 ROOT
