@<TRIPOS>MOLECULE
TVF
   70    75     1     0     0
SMALL
abcg2


@<TRIPOS>ATOM
      1 N1          -8.1580    -5.3540    15.2110 n          1 TVF      -0.373800
      2 C4          -9.0590    -1.2590    15.2200 ca         1 TVF      -0.147000
      3 C5          -8.7940    -2.6240    15.3410 ca         1 TVF      -0.029300
      4 C6          -7.5320    -3.0480    15.7610 ca         1 TVF      -0.122300
      5 C7          -9.8700    -3.6220    14.9860 c6         1 TVF      -0.011100
      6 C8          -9.5370    -5.0090    15.4820 cx         1 TVF       0.050400
      7 C10        -10.1230    -5.4380    16.8100 cx         1 TVF      -0.119900
      8 C13         -8.6710    -6.9400    13.3970 ca         1 TVF      -0.131600
      9 C15         -9.5620    -8.9930    12.4930 ca         1 TVF      -0.117500
     10 C17        -10.2800    -6.8730    11.6010 ca         1 TVF      -0.117500
     11 C20         -6.3630    -6.1490    17.6510 ca         1 TVF      -0.057000
     12 C21         -6.2310    -6.6280    18.9510 ca         1 TVF      -0.177500
     13 C22         -6.7630    -5.8910    20.0110 ca         1 TVF       0.147100
     14 C24         -7.5250    -4.2200    18.4480 ca         1 TVF      -0.057000
     15 C26         -6.1130    -7.7130    23.1440 c3         1 TVF       0.170800
     16 C28         -4.5900    -4.9570    25.1150 c5         1 TVF      -0.078400
     17 C1          -6.5580    -2.0900    16.0450 ca         1 TVF      -0.057000
     18 C11        -10.6130    -6.0480    15.5290 cx         1 TVF      -0.119900
     19 C12         -7.7010    -6.2680    14.3200 c          1 TVF       0.619700
     20 C14         -8.7160    -8.3340    13.3770 ca         1 TVF      -0.076000
     21 C16        -10.3450    -8.2630    11.6020 ca         1 TVF      -0.096000
     22 C18         -9.4510    -6.2130    12.5010 ca         1 TVF      -0.076000
     23 C19         -7.0140    -4.9500    17.3750 ca         1 TVF      -0.138300
     24 C2          -6.8170    -0.7350    15.9270 ca         1 TVF      -0.198000
     25 C23         -7.4070    -4.6800    19.7490 ca         1 TVF      -0.177500
     26 C25         -6.0420    -7.4950    21.6470 c3         1 TVF       0.162600
     27 C27         -5.4760    -5.4720    23.9720 c5         1 TVF       0.159800
     28 C29         -4.2960    -6.2040    25.9930 c5         1 TVF      -0.068700
     29 C3          -8.0830    -0.3170    15.5120 ca         1 TVF       0.138100
     30 C30         -5.1120    -7.3120    25.3180 c5         1 TVF       0.157800
     31 C31         -4.6270    -6.0220    27.4690 c3         1 TVF      -0.084100
     32 C9          -7.1780    -4.5110    15.9270 c6         1 TVF       0.214300
     33 N2          -5.1790    -6.9090    23.9140 n3         1 TVF      -0.721600
     34 O1          -6.5030    -6.5620    14.2340 o          1 TVF      -0.608100
     35 O2          -8.4080     1.0040    15.3760 oh         1 TVF      -0.539100
     36 O3          -6.7010    -6.2680    21.3160 os         1 TVF      -0.361100
     37 H1         -10.0380    -0.9240    14.8970 ha         1 TVF       0.127000
     38 H2          -9.9950    -3.6380    13.8980 hc         1 TVF       0.059700
     39 H3         -10.8270    -3.3020    15.4010 hc         1 TVF       0.059700
     40 H4         -10.7420    -4.7190    17.3300 hc         1 TVF       0.082200
     41 H5          -9.5120    -6.0610    17.4450 hc         1 TVF       0.082200
     42 H6          -9.6070   -10.0750    12.4960 ha         1 TVF       0.116000
     43 H7         -10.8760    -6.3010    10.9020 ha         1 TVF       0.116000
     44 H8          -5.9590    -6.7320    16.8320 ha         1 TVF       0.125500
     45 H9          -5.7190    -7.5630    19.1230 ha         1 TVF       0.122500
     46 H10         -8.0350    -3.2830    18.2650 ha         1 TVF       0.125500
     47 H11         -7.1540    -7.5590    23.4790 h1         1 TVF       0.042700
     48 H12         -5.8710    -8.7630    23.3220 h1         1 TVF       0.042700
     49 H14         -5.0980    -4.1760    25.6830 hc         1 TVF       0.046700
     50 H15         -5.5760    -2.4140    16.3700 ha         1 TVF       0.121000
     51 H16        -11.5770    -5.7530    15.1360 hc         1 TVF       0.082200
     52 H17        -10.3490    -7.0760    15.3400 hc         1 TVF       0.082200
     53 H18         -8.0990    -8.8980    14.0650 ha         1 TVF       0.121500
     54 H19        -11.0000    -8.7760    10.9090 ha         1 TVF       0.114000
     55 H20         -9.4030    -5.1330    12.4970 ha         1 TVF       0.121500
     56 H21         -6.0510    -0.0020    16.1520 ha         1 TVF       0.116000
     57 H22         -7.8120    -4.1120    20.5770 ha         1 TVF       0.122500
     58 H23         -6.5430    -8.3210    21.1340 h1         1 TVF       0.045200
     59 H24         -4.9990    -7.4570    21.3190 h1         1 TVF       0.045200
     60 H25         -5.2750    -4.9920    23.0170 h1         1 TVF       0.044200
     61 H26         -6.5410    -5.3110    24.2080 h1         1 TVF       0.044200
     62 H27         -3.2370    -6.4550    25.9010 hc         1 TVF       0.056700
     63 H28         -6.1230    -7.3540    25.7650 h1         1 TVF       0.034200
     64 H29         -4.6630    -8.3020    25.4170 h1         1 TVF       0.034200
     65 H30         -4.0130    -5.2350    27.9140 hc         1 TVF       0.034033
     66 H31         -5.6760    -5.7430    27.5980 hc         1 TVF       0.034033
     67 H32         -4.4510    -6.9420    28.0320 hc         1 TVF       0.034033
     68 H33         -6.2300    -4.6900    15.4240 h1         1 TVF       0.095700
     69 H35         -7.6500     1.5550    15.6120 ho         1 TVF       0.463000
     70 H13         -3.6640    -4.5310    24.7280 hc         1 TVF       0.046700
@<TRIPOS>BOND
     1     1     6 1   
     2     1    19 1   
     3     1    32 1   
     4     2     3 ar  
     5     2    29 ar  
     6     2    37 1   
     7     3     4 ar  
     8     3     5 1   
     9     4    17 ar  
    10     4    32 1   
    11     5     6 1   
    12     5    38 1   
    13     5    39 1   
    14     6     7 1   
    15     6    18 1   
    16     7    18 1   
    17     7    40 1   
    18     7    41 1   
    19     8    19 1   
    20     8    20 ar  
    21     8    22 ar  
    22     9    20 ar  
    23     9    21 ar  
    24     9    42 1   
    25    10    21 ar  
    26    10    22 ar  
    27    10    43 1   
    28    11    12 ar  
    29    11    23 ar  
    30    11    44 1   
    31    12    13 ar  
    32    12    45 1   
    33    13    25 ar  
    34    13    36 1   
    35    14    23 ar  
    36    14    25 ar  
    37    14    46 1   
    38    15    26 1   
    39    15    33 1   
    40    15    47 1   
    41    15    48 1   
    42    16    27 1   
    43    16    28 1   
    44    16    49 1   
    45    16    70 1   
    46    17    24 ar  
    47    17    50 1   
    48    18    51 1   
    49    18    52 1   
    50    19    34 2   
    51    20    53 1   
    52    21    54 1   
    53    22    55 1   
    54    23    32 1   
    55    24    29 ar  
    56    24    56 1   
    57    25    57 1   
    58    26    36 1   
    59    26    58 1   
    60    26    59 1   
    61    27    33 1   
    62    27    60 1   
    63    27    61 1   
    64    28    30 1   
    65    28    31 1   
    66    28    62 1   
    67    29    35 1   
    68    30    33 1   
    69    30    63 1   
    70    30    64 1   
    71    31    65 1   
    72    31    66 1   
    73    31    67 1   
    74    32    68 1   
    75    35    69 1   
@<TRIPOS>SUBSTRUCTURE
     1 TVF         1 TEMP              0 ****  ****    0 ROOT
