@<TRIPOS>MOLECULE
TVH
   57    61     1     0     0
SMALL
abcg2


@<TRIPOS>ATOM
      1 C2         -36.0750    17.3190    -4.5730 c3         1 TVH       0.197600
      2 C3         -36.0470    16.0340    -5.3580 cx         1 TVH      -0.131000
      3 C6         -39.2270    14.3540    -4.5660 c5         1 TVH       0.456000
      4 C10        -39.9870    16.8950    -1.1880 ca         1 TVH      -0.110000
      5 C11        -40.5050    16.6380     0.0690 ca         1 TVH      -0.044500
      6 C12        -41.6630    15.8750     0.1670 ca         1 TVH      -0.170200
      7 C13        -42.3210    15.3960    -0.9600 ca         1 TVH      -0.044500
      8 C14        -41.7910    15.6690    -2.2070 ca         1 TVH      -0.110000
      9 O17        -43.2270    14.8940     1.5550 o          1 TVH      -0.398500
     10 C21        -41.2330    13.8940    -7.6560 ca         1 TVH      -0.046000
     11 C22        -40.7580    12.7040    -8.2010 ca         1 TVH      -0.103000
     12 C23        -39.7390    11.9870    -7.5760 ca         1 TVH      -0.089000
     13 C24        -39.1840    12.4530    -6.3860 ca         1 TVH       0.145000
     14 C26        -39.6480    13.6320    -5.8350 ca         1 TVH      -0.114300
     15 C27        -39.5210    13.5710    -3.2920 ca         1 TVH      -0.085300
     16 C28        -38.7810    13.8120    -2.1390 ca         1 TVH      -0.071500
     17 C35        -34.8700    15.1100    -5.1730 cx         1 TVH      -0.108400
     18 O1         -36.5120    17.0790    -3.2280 oh         1 TVH      -0.661000
     19 C4         -37.3710    15.4050    -5.6900 c3         1 TVH       0.197600
     20 O5         -37.8770    14.7230    -4.5320 os         1 TVH      -0.430000
     21 N7         -40.1080    15.5500    -4.6240 n          1 TVH      -0.448800
     22 C9         -40.6080    16.3970    -2.3340 ca         1 TVH      -0.049300
     23 O16        -41.5720    15.9300     2.4750 o          1 TVH      -0.398500
     24 C18        -40.9490    15.5690    -5.6960 c          1 TVH       0.575600
     25 O19        -41.7690    16.4400    -5.9540 o          1 TVH      -0.532000
     26 C20        -40.6590    14.3360    -6.4770 ca         1 TVH      -0.144600
     27 CL1        -37.9110    11.5430    -5.6160 cl         1 TVH      -0.175000
     28 C29        -39.1580    13.2500    -0.9270 ca         1 TVH      -0.111000
     29 C30        -40.2770    12.4340    -0.8820 ca         1 TVH       0.132000
     30 CL2        -40.7990    11.7790     0.6550 cl         1 TVH      -0.199000
     31 C32        -41.0040    12.1430    -2.0280 ca         1 TVH      -0.111000
     32 C33        -40.6200    12.7180    -3.2300 ca         1 TVH      -0.071500
     33 C34        -34.9800    15.9330    -6.4240 cx         1 TVH      -0.108400
     34 H38        -35.0720    17.7570    -4.5640 h1         1 TVH       0.024700
     35 H37        -36.7530    18.0280    -5.0620 h1         1 TVH       0.024700
     36 H41        -38.9170    16.8660    -3.5530 h1         1 TVH       0.080700
     37 H42        -40.4450    17.5150    -4.1550 h1         1 TVH       0.080700
     38 H43        -39.0670    17.4570    -1.2800 ha         1 TVH       0.129500
     39 H44        -40.0140    16.9980     0.9600 ha         1 TVH       0.151000
     40 H45        -43.2190    14.8060    -0.8530 ha         1 TVH       0.151000
     41 H46        -42.2810    15.2790    -3.0880 ha         1 TVH       0.129500
     42 H47        -42.0210    14.4580    -8.1360 ha         1 TVH       0.143000
     43 H48        -41.1770    12.3230    -9.1230 ha         1 TVH       0.128000
     44 H49        -39.3740    11.0670    -8.0100 ha         1 TVH       0.136000
     45 H50        -37.9260    14.4710    -2.1780 ha         1 TVH       0.133500
     46 H57        -35.0560    14.0460    -5.2440 hc         1 TVH       0.078950
     47 H56        -34.1260    15.3930    -4.4400 hc         1 TVH       0.078950
     48 H36        -36.5520    17.9290    -2.7730 ho         1 TVH       0.437000
     49 H39        -38.0820    16.1740    -6.0080 h1         1 TVH       0.039700
     50 H40        -37.2570    14.6850    -6.5040 h1         1 TVH       0.039700
     51 H51        -38.6010    13.4660    -0.0250 ha         1 TVH       0.134000
     52 H52        -41.8690    11.4960    -1.9790 ha         1 TVH       0.134000
     53 H53        -41.2080    12.5190    -4.1150 ha         1 TVH       0.133500
     54 H54        -34.3140    16.7770    -6.5410 hc         1 TVH       0.078950
     55 H55        -35.2410    15.4310    -7.3460 hc         1 TVH       0.078950
     56 C8         -39.9780    16.6460    -3.6860 c3         1 TVH       0.145300
     57 N15        -42.1900    15.5460     1.4870 no         1 TVH       0.675200
@<TRIPOS>BOND
     1     1     2 1   
     2     1    18 1   
     3     1    34 1   
     4     1    35 1   
     5     2    17 1   
     6     2    19 1   
     7     2    33 1   
     8     3    14 1   
     9     3    15 1   
    10     3    20 1   
    11     3    21 1   
    12     4     5 ar  
    13     4    22 ar  
    14     4    38 1   
    15     5     6 ar  
    16     5    39 1   
    17     6     7 ar  
    18     6    57 1   
    19     7     8 ar  
    20     7    40 1   
    21     8    22 ar  
    22     8    41 1   
    23     9    57 1   
    24    10    11 ar  
    25    10    26 ar  
    26    10    42 1   
    27    11    12 ar  
    28    11    43 1   
    29    12    13 ar  
    30    12    44 1   
    31    13    14 ar  
    32    13    27 1   
    33    14    26 ar  
    34    15    16 ar  
    35    15    32 ar  
    36    16    28 ar  
    37    16    45 1   
    38    17    33 1   
    39    17    46 1   
    40    17    47 1   
    41    18    48 1   
    42    19    20 1   
    43    19    49 1   
    44    19    50 1   
    45    21    24 1   
    46    21    56 1   
    47    22    56 1   
    48    23    57 1   
    49    24    25 2   
    50    24    26 1   
    51    28    29 ar  
    52    28    51 1   
    53    29    30 1   
    54    29    31 ar  
    55    31    32 ar  
    56    31    52 1   
    57    32    53 1   
    58    33    54 1   
    59    33    55 1   
    60    36    56 1   
    61    37    56 1   
@<TRIPOS>SUBSTRUCTURE
     1 TVH         1 TEMP              0 ****  ****    0 ROOT
