@<TRIPOS>MOLECULE
TVH
   57    61     1     0     0
SMALL
No Charge or Current Charge


@<TRIPOS>ATOM
      1 C2         -35.7770    17.4300    -4.9290 c3         1 TVH       0.197600
      2 C3         -35.9200    16.0710    -5.6250 cx         1 TVH      -0.131000
      3 C6         -39.1640    14.4900    -4.5380 c5         1 TVH       0.456000
      4 C10        -39.9000    16.4920    -0.6220 ca         1 TVH      -0.110000
      5 C11        -40.6810    16.0500     0.4410 ca         1 TVH      -0.044500
      6 C12        -42.0250    15.6110     0.2370 ca         1 TVH      -0.170200
      7 C13        -42.6950    15.5950    -1.0370 ca         1 TVH      -0.044500
      8 C14        -42.1620    15.9800    -2.2900 ca         1 TVH      -0.110000
      9 O17        -43.8460    14.5100     1.2590 o          1 TVH      -0.398500
     10 C21        -41.1540    13.7410    -7.6190 ca         1 TVH      -0.046000
     11 C22        -40.6240    12.5220    -8.0900 ca         1 TVH      -0.103000
     12 C23        -39.5680    11.8880    -7.3940 ca         1 TVH      -0.089000
     13 C24        -39.0320    12.4660    -6.2240 ca         1 TVH       0.145000
     14 C26        -39.5660    13.6810    -5.7670 ca         1 TVH      -0.114300
     15 C27        -39.4510    13.7890    -3.1990 ca         1 TVH      -0.085300
     16 C28        -38.5370    13.8540    -2.1210 ca         1 TVH      -0.071500
     17 C35        -34.8740    14.9970    -5.3930 cx         1 TVH      -0.108400
     18 O1         -36.0820    17.3480    -3.5320 oh         1 TVH      -0.661000
     19 C4         -37.3870    15.6640    -5.8060 c3         1 TVH       0.197600
     20 O5         -37.7980    14.9530    -4.6240 os         1 TVH      -0.430000
     21 N7         -40.1080    15.6400    -4.6460 n          1 TVH      -0.448800
     22 C9         -40.8510    16.4360    -2.3960 ca         1 TVH      -0.049300
     23 O16        -42.3190    15.3520     2.5640 o          1 TVH      -0.398500
     24 C18        -40.9610    15.5380    -5.7500 c          1 TVH       0.575600
     25 O19        -41.8340    16.3320    -6.0690 o          1 TVH      -0.532000
     26 C20        -40.6010    14.2920    -6.4540 ca         1 TVH      -0.144600
     27 Cl1        -37.7210    11.6650    -5.3660 cl         1 TVH      -0.175000
     28 C29        -38.8440    13.2590    -0.8840 ca         1 TVH      -0.111000
     29 C30        -40.0660    12.5960    -0.7070 ca         1 TVH       0.132000
     30 Cl2        -40.4630    11.8850     0.8510 cl         1 TVH      -0.199000
     31 C32        -40.9760    12.5080    -1.7690 ca         1 TVH      -0.111000
     32 C33        -40.6700    13.0980    -3.0080 ca         1 TVH      -0.071500
     33 C34        -34.9310    15.7120    -6.7200 cx         1 TVH      -0.108400
     34 H38        -34.7470    17.7910    -5.0560 h1         1 TVH       0.024700
     35 H37        -36.4350    18.1600    -5.4190 h1         1 TVH       0.024700
     36 H41        -39.1520    17.1200    -3.5000 h1         1 TVH       0.080700
     37 H42        -40.7040    17.6230    -4.1790 h1         1 TVH       0.080700
     38 H43        -38.8650    16.8090    -0.5130 ha         1 TVH       0.129500
     39 H44        -40.2320    16.0300     1.4330 ha         1 TVH       0.151000
     40 H45        -43.7260    15.2460    -1.0680 ha         1 TVH       0.151000
     41 H46        -42.7780    15.8980    -3.1840 ha         1 TVH       0.129500
     42 H47        -41.9670    14.2380    -8.1440 ha         1 TVH       0.143000
     43 H48        -41.0290    12.0680    -8.9910 ha         1 TVH       0.128000
     44 H49        -39.1640    10.9480    -7.7620 ha         1 TVH       0.136000
     45 H50        -37.5940    14.3830    -2.2280 ha         1 TVH       0.133500
     46 H57        -35.2050    13.9610    -5.3600 hc         1 TVH       0.078950
     47 H56        -34.0470    15.2280    -4.7260 hc         1 TVH       0.078950
     48 H36        -35.9220    18.2400    -3.1560 ho         1 TVH       0.437000
     49 H39        -38.0050    16.5560    -5.9720 h1         1 TVH       0.039700
     50 H40        -37.4810    15.0210    -6.6910 h1         1 TVH       0.039700
     51 H51        -38.1400    13.3270    -0.0590 ha         1 TVH       0.134000
     52 H52        -41.9240    11.9950    -1.6290 ha         1 TVH       0.134000
     53 H53        -41.3980    13.0390    -3.8140 ha         1 TVH       0.133500
     54 H54        -34.1350    16.4170    -6.9470 hc         1 TVH       0.078950
     55 H55        -35.2910    15.1500    -7.5790 hc         1 TVH       0.078950
     56 C8         -40.1750    16.7820    -3.7110 c3         1 TVH       0.145300
     57 N15        -42.7870    15.1250     1.4400 no         1 TVH       0.675200
@<TRIPOS>BOND
     1     1     2 1   
     2     1    18 1   
     3     1    34 1   
     4     1    35 1   
     5     2    17 1   
     6     2    19 1   
     7     2    33 1   
     8     3    14 1   
     9     3    15 1   
    10     3    20 1   
    11     3    21 1   
    12     4     5 ar  
    13     4    22 ar  
    14     4    38 1   
    15     5     6 ar  
    16     5    39 1   
    17     6     7 ar  
    18     6    57 1   
    19     7     8 ar  
    20     7    40 1   
    21     8    22 ar  
    22     8    41 1   
    23     9    57 1   
    24    10    11 ar  
    25    10    26 ar  
    26    10    42 1   
    27    11    12 ar  
    28    11    43 1   
    29    12    13 ar  
    30    12    44 1   
    31    13    14 ar  
    32    13    27 1   
    33    14    26 ar  
    34    15    16 ar  
    35    15    32 ar  
    36    16    28 ar  
    37    16    45 1   
    38    17    33 1   
    39    17    46 1   
    40    17    47 1   
    41    18    48 1   
    42    19    20 1   
    43    19    49 1   
    44    19    50 1   
    45    21    24 1   
    46    21    56 1   
    47    22    56 1   
    48    23    57 1   
    49    24    25 2   
    50    24    26 1   
    51    28    29 ar  
    52    28    51 1   
    53    29    30 1   
    54    29    31 ar  
    55    31    32 ar  
    56    31    52 1   
    57    32    53 1   
    58    33    54 1   
    59    33    55 1   
    60    36    56 1   
    61    37    56 1   
@<TRIPOS>SUBSTRUCTURE
     1 TVH         1 TEMP              0 ****  ****    0 ROOT
