@<TRIPOS>MOLECULE
TVI
   34    36     1     0     0
SMALL
No Charge or Current Charge


@<TRIPOS>ATOM
      1 CAB         26.4550     3.9530    61.4900 c5         1 TVI       0.136300
      2 CAC         26.0830     4.5950    60.1110 c5         1 TVI       0.044300
      3 CAD         24.7080     3.9260    59.8420 c5         1 TVI       0.139800
      4 CAF         25.0540     3.5930    62.1170 c5         1 TVI       0.113800
      5 CAH         26.5680     6.8690    59.0810 cc         1 TVI      -0.183000
      6 CAI         26.2900     8.1340    59.5180 cd         1 TVI       0.141300
      7 CAJ         26.6030     9.4480    58.8320 c3         1 TVI       0.153300
      8 CAL         24.4290     9.7420    57.6680 ca         1 TVI       0.098100
      9 CAM         24.6350     8.6600    56.7710 ca         1 TVI       0.266900
     10 CAO         22.5080     8.8870    55.8700 ca         1 TVI       0.328900
     11 CAP         22.2190     9.9740    56.7200 ca         1 TVI      -0.044900
     12 CAR         23.1950    10.4120    57.6320 ca         1 TVI      -0.086000
     13 NAE         24.0140     4.0300    61.1460 n7         1 TVI      -0.825400
     14 NAG         26.0680     6.0670    60.0760 na         1 TVI       0.130800
     15 NAN         23.6970     8.2350    55.8870 nb         1 TVI      -0.645000
     16 NAS         25.6550     8.0640    60.7410 nd         1 TVI      -0.325000
     17 NAT         25.5150     6.8110    61.0800 nc         1 TVI      -0.218800
     18 OAA         27.2800     2.7910    61.3180 oh         1 TVI      -0.659000
     19 OAK         25.3860    10.1810    58.5690 os         1 TVI      -0.322100
     20 BrAQ        20.5190    10.8480    56.6350 br         1 TVI      -0.076100
     21 H1          26.9820     4.6840    62.1200 h1         1 TVI       0.061700
     22 H2          26.7980     4.2620    59.3480 h1         1 TVI       0.096700
     23 H3          24.1550     4.4270    59.0340 h1         1 TVI       0.075200
     24 H4          24.8380     2.8730    59.5520 h1         1 TVI       0.075200
     25 H5          24.9100     4.0780    63.0930 h1         1 TVI       0.061700
     26 H6          24.9780     2.5080    62.2830 h1         1 TVI       0.061700
     27 H7          27.0530     6.4970    58.1880 h4         1 TVI       0.172000
     28 H8          27.1620     9.2640    57.9060 h1         1 TVI       0.069200
     29 H9          27.2540    10.0330    59.4940 h1         1 TVI       0.069200
     30 H10         25.5770     8.1170    56.7420 h4         1 TVI       0.019100
     31 H11         21.7670     8.5300    55.1550 h4         1 TVI       0.037100
     32 H12         23.0000    11.2470    58.2990 ha         1 TVI       0.150000
     33 H13         23.8230     5.0290    61.3130 hn         1 TVI       0.425000
     34 H15         27.5330     2.4770    62.2150 ho         1 TVI       0.457000
@<TRIPOS>BOND
     1     1     2 1   
     2     1     4 1   
     3     1    18 1   
     4     1    21 1   
     5     2     3 1   
     6     2    14 1   
     7     2    22 1   
     8     3    13 1   
     9     3    23 1   
    10     3    24 1   
    11     4    13 1   
    12     4    25 1   
    13     4    26 1   
    14     5     6 2   
    15     5    14 1   
    16     5    27 1   
    17     6     7 1   
    18     6    16 1   
    19     7    19 1   
    20     7    28 1   
    21     7    29 1   
    22     8     9 ar  
    23     8    12 ar  
    24     8    19 1   
    25     9    15 ar  
    26     9    30 1   
    27    10    11 ar  
    28    10    15 ar  
    29    10    31 1   
    30    11    12 ar  
    31    11    20 1   
    32    12    32 1   
    33    13    33 1   
    34    14    17 1   
    35    16    17 2   
    36    18    34 1   
@<TRIPOS>SUBSTRUCTURE
     1 TVI         1 TEMP              0 ****  ****    0 ROOT
