@<TRIPOS>MOLECULE
TVI
   34    36     1     0     0
SMALL
abcg2


@<TRIPOS>ATOM
      1 CAB         26.5560     3.9810    61.3850 c5         1 TVI       0.136300
      2 CAC         26.0110     4.5160    60.0540 c5         1 TVI       0.044300
      3 CAD         24.6050     3.9050    60.0080 c5         1 TVI       0.139800
      4 CAF         25.2810     3.7470    62.2350 c5         1 TVI       0.113800
      5 CAH         26.4460     6.7890    59.0840 cc         1 TVI      -0.183000
      6 CAI         26.1460     8.0460    59.5440 cd         1 TVI       0.141300
      7 CAJ         26.4390     9.3750    58.9410 c3         1 TVI       0.153300
      8 CAL         24.4320     9.7250    57.6880 ca         1 TVI       0.098100
      9 CAM         24.7150     8.7490    56.7320 ca         1 TVI       0.266900
     10 CAO         22.6850     9.0270    55.7020 ca         1 TVI       0.328900
     11 CAP         22.3280    10.0150    56.6140 ca         1 TVI      -0.044900
     12 CAR         23.1990    10.3730    57.6210 ca         1 TVI      -0.086000
     13 NAE         24.1130     3.9320    61.3740 n7         1 TVI      -0.825400
     14 NAG         25.9760     5.9680    60.0340 na         1 TVI       0.130800
     15 NAN         23.8560     8.4210    55.7760 nb         1 TVI      -0.645000
     16 NAS         25.5170     7.9100    60.7320 nd         1 TVI      -0.325000
     17 NAT         25.4180     6.6590    61.0160 nc         1 TVI      -0.218800
     18 OAA         27.2350     2.7860    61.0750 oh         1 TVI      -0.659000
     19 OAK         25.2600    10.1210    58.6660 os         1 TVI      -0.322100
     20 BRAQ        20.6550    10.8630    56.4620 br         1 TVI      -0.076100
     21 H1          27.2300     4.7040    61.8610 h1         1 TVI       0.061700
     22 H2          26.6390     4.2160    59.2160 h1         1 TVI       0.096700
     23 H3          23.9310     4.4230    59.3270 h1         1 TVI       0.075200
     24 H4          24.7000     2.8740    59.6570 h1         1 TVI       0.075200
     25 H5          25.2330     4.4310    63.0830 h1         1 TVI       0.061700
     26 H6          25.3070     2.7310    62.6420 h1         1 TVI       0.061700
     27 H7          26.9410     6.4380    58.1940 h4         1 TVI       0.172000
     28 H8          27.0630     9.2640    58.0500 h1         1 TVI       0.069200
     29 H9          26.9930     9.9950    59.6460 h1         1 TVI       0.069200
     30 H10         25.6570     8.2170    56.7190 h4         1 TVI       0.019100
     31 H11         22.0160     8.7260    54.9040 h4         1 TVI       0.037100
     32 H12         22.9510    11.1350    58.3500 ha         1 TVI       0.150000
     33 H13         23.7190     4.8450    61.5560 hn         1 TVI       0.425000
     34 H15         27.4590     2.3410    61.8990 ho         1 TVI       0.457000
@<TRIPOS>BOND
     1     1     2 1   
     2     1     4 1   
     3     1    18 1   
     4     1    21 1   
     5     2     3 1   
     6     2    14 1   
     7     2    22 1   
     8     3    13 1   
     9     3    23 1   
    10     3    24 1   
    11     4    13 1   
    12     4    25 1   
    13     4    26 1   
    14     5     6 2   
    15     5    14 1   
    16     5    27 1   
    17     6     7 1   
    18     6    16 1   
    19     7    19 1   
    20     7    28 1   
    21     7    29 1   
    22     8     9 ar  
    23     8    12 ar  
    24     8    19 1   
    25     9    15 ar  
    26     9    30 1   
    27    10    11 ar  
    28    10    15 ar  
    29    10    31 1   
    30    11    12 ar  
    31    11    20 1   
    32    12    32 1   
    33    13    33 1   
    34    14    17 1   
    35    16    17 2   
    36    18    34 1   
@<TRIPOS>SUBSTRUCTURE
     1 TVI         1 TEMP              0 ****  ****    0 ROOT
