@<TRIPOS>MOLECULE
TVK
   64    68     1     0     0
SMALL
abcg2


@<TRIPOS>ATOM
      1 C1         -19.3520   -10.7200    16.4170 c3         1 TVK       0.193600
      2 C3         -18.9570    -9.3760    15.8670 cx         1 TVK      -0.122000
      3 C6         -21.5650    -9.0560    13.2970 c5         1 TVK       0.464000
      4 C10        -24.4390   -11.4020    13.0170 ca         1 TVK      -0.130000
      5 C11        -24.8230   -12.4710    12.2270 ca         1 TVK      -0.063000
      6 C12        -24.2810   -13.7160    12.5130 ca         1 TVK       0.064000
      7 C14        -23.4030   -13.8550    13.5780 ca         1 TVK       0.347900
      8 C16        -23.4670    -8.0920    14.3810 c          1 TVK       0.576600
      9 O17        -24.4720    -7.9870    15.0710 o          1 TVK      -0.526000
     10 C19        -23.1090    -5.6820    13.4950 ca         1 TVK      -0.054000
     11 C21        -21.1790    -5.4110    12.0760 ca         1 TVK      -0.133000
     12 C22        -20.8880    -6.7570    12.2100 ca         1 TVK       0.200000
     13 C24        -21.6790    -7.5790    12.9820 ca         1 TVK      -0.161300
     14 C26        -21.3890    -2.5130    12.9450 c3         1 TVK      -0.099100
     15 C27        -23.0360    -3.0860    11.1190 c3         1 TVK      -0.099100
     16 C31        -22.7310   -10.4500     9.9520 ca         1 TVK      -0.110500
     17 C35        -21.0910   -11.2160    12.0660 ca         1 TVK      -0.070000
     18 C36        -17.9870    -8.5420    16.6620 cx         1 TVK      -0.113900
     19 C37        -17.5380    -9.2140    15.3920 cx         1 TVK      -0.113900
     20 O2         -20.4000   -10.5390    17.3800 oh         1 TVK      -0.673000
     21 C4         -20.0330    -8.6380    15.1230 c3         1 TVK       0.194600
     22 O5         -20.3750    -9.4050    13.9570 os         1 TVK      -0.452000
     23 N7         -22.7480    -9.2370    14.1780 n          1 TVK      -0.447800
     24 C9         -23.5150   -11.6070    14.0390 ca         1 TVK       0.331300
     25 N15        -23.0240   -12.8160    14.3210 nb         1 TVK      -0.671000
     26 C18        -22.7810    -7.0230    13.6090 ca         1 TVK      -0.125600
     27 C20        -22.2910    -4.8560    12.7220 ca         1 TVK      -0.082300
     28 F23        -19.8060    -7.2620    11.5730 f          1 TVK      -0.164000
     29 C29        -21.6830    -9.9560    12.0730 ca         1 TVK      -0.081300
     30 C30        -22.4890    -9.5780    11.0040 ca         1 TVK      -0.070000
     31 C32        -22.1570   -11.7130     9.9830 ca         1 TVK       0.134000
     32 CL2        -22.5010   -12.8440     8.6920 cl         1 TVK      -0.207000
     33 C34        -21.3280   -12.1030    11.0240 ca         1 TVK      -0.110500
     34 H38        -19.6990   -11.3670    15.6070 h1         1 TVK       0.032700
     35 H39        -18.4820   -11.1930    16.8850 h1         1 TVK       0.032700
     36 H43        -23.7480   -10.2250    15.6600 h1         1 TVK       0.084700
     37 H44        -22.1020   -10.7960    15.4030 h1         1 TVK       0.084700
     38 H45        -24.8230   -10.4110    12.8190 ha         1 TVK       0.137000
     39 H46        -25.5130   -12.3420    11.4050 ha         1 TVK       0.137000
     40 H47        -22.9850   -14.8250    13.8230 h4         1 TVK       0.033100
     41 H48        -23.9800    -5.2860    13.9930 ha         1 TVK       0.151000
     42 H49        -20.5280    -4.8040    11.4610 ha         1 TVK       0.136000
     43 H50        -21.1060    -2.7060    13.9820 hc         1 TVK       0.048700
     44 H52        -20.5280    -2.7240    12.3120 hc         1 TVK       0.048700
     45 H51        -21.6450    -1.4580    12.8390 hc         1 TVK       0.048700
     46 H53        -23.2590    -2.0240    11.0050 hc         1 TVK       0.048700
     47 H55        -22.2470    -3.3560    10.4180 hc         1 TVK       0.048700
     48 H54        -23.9290    -3.6640    10.8770 hc         1 TVK       0.048700
     49 H58        -23.3700   -10.1580     9.1300 ha         1 TVK       0.133000
     50 H60        -20.4660   -11.5220    12.8920 ha         1 TVK       0.130500
     51 H61        -17.6430    -8.9470    17.6040 hc         1 TVK       0.076950
     52 H62        -18.1160    -7.4670    16.6500 hc         1 TVK       0.076950
     53 H64        -16.8780   -10.0680    15.4730 hc         1 TVK       0.076950
     54 H63        -17.3760    -8.5960    14.5190 hc         1 TVK       0.076950
     55 H42        -20.7520   -11.4070    17.6100 ho         1 TVK       0.445000
     56 H40        -19.6790    -7.6490    14.8220 h1         1 TVK       0.047200
     57 H41        -20.9150    -8.5140    15.7560 h1         1 TVK       0.047200
     58 H56        -23.4450    -3.0010    14.2980 ho         1 TVK       0.445000
     59 H57        -22.9620    -8.6040    10.9930 ha         1 TVK       0.130500
     60 H59        -20.8890   -13.0900    11.0330 ha         1 TVK       0.133000
     61 C8         -23.0080   -10.4690    14.8960 c3         1 TVK       0.057700
     62 C25        -22.6000    -3.3660    12.5570 c3         1 TVK       0.223300
     63 CL1        -24.6840   -15.1020    11.5350 cl         1 TVK      -0.191000
     64 O28        -23.7180    -2.9890    13.3710 oh         1 TVK      -0.657000
@<TRIPOS>BOND
     1     1     2 1   
     2     1    20 1   
     3     1    34 1   
     4     1    35 1   
     5     2    18 1   
     6     2    19 1   
     7     2    21 1   
     8     3    13 1   
     9     3    22 1   
    10     3    23 1   
    11     3    29 1   
    12     4     5 ar  
    13     4    24 ar  
    14     4    38 1   
    15     5     6 ar  
    16     5    39 1   
    17     6     7 ar  
    18     6    63 1   
    19     7    25 ar  
    20     7    40 1   
    21     8     9 2   
    22     8    23 1   
    23     8    26 1   
    24    10    26 ar  
    25    10    27 ar  
    26    10    41 1   
    27    11    12 ar  
    28    11    27 ar  
    29    11    42 1   
    30    12    13 ar  
    31    12    28 1   
    32    13    26 ar  
    33    14    43 1   
    34    14    44 1   
    35    14    45 1   
    36    14    62 1   
    37    15    46 1   
    38    15    47 1   
    39    15    48 1   
    40    15    62 1   
    41    16    30 ar  
    42    16    31 ar  
    43    16    49 1   
    44    17    29 ar  
    45    17    33 ar  
    46    17    50 1   
    47    18    19 1   
    48    18    51 1   
    49    18    52 1   
    50    19    53 1   
    51    19    54 1   
    52    20    55 1   
    53    21    22 1   
    54    21    56 1   
    55    21    57 1   
    56    23    61 1   
    57    24    25 ar  
    58    24    61 1   
    59    27    62 1   
    60    29    30 ar  
    61    30    59 1   
    62    31    32 1   
    63    31    33 ar  
    64    33    60 1   
    65    36    61 1   
    66    37    61 1   
    67    58    64 1   
    68    62    64 1   
@<TRIPOS>SUBSTRUCTURE
     1 TVK         1 TEMP              0 ****  ****    0 ROOT
