@<TRIPOS>MOLECULE
TVK
   64    68     1     0     0
SMALL
No Charge or Current Charge


@<TRIPOS>ATOM
      1 C1         -19.1580   -10.6620    16.7140 c3         1 TVK       0.193600
      2 C3         -18.9190    -9.2610    16.1440 cx         1 TVK      -0.122000
      3 C6         -21.5070    -9.1350    13.4230 c5         1 TVK       0.464000
      4 C10        -24.7720   -11.2560    12.9030 ca         1 TVK      -0.130000
      5 C11        -25.2110   -12.2010    11.9600 ca         1 TVK      -0.063000
      6 C12        -24.6410   -13.4830    11.9910 ca         1 TVK       0.064000
      7 C14        -23.6670   -13.7700    12.9700 ca         1 TVK       0.347900
      8 C16        -23.5060    -8.1330    14.3140 c          1 TVK       0.576600
      9 O17        -24.5820    -8.0010    14.8800 o          1 TVK      -0.526000
     10 C19        -23.0390    -5.7230    13.4500 ca         1 TVK      -0.054000
     11 C21        -20.9490    -5.4940    12.2050 ca         1 TVK      -0.133000
     12 C22        -20.6780    -6.8630    12.3930 ca         1 TVK       0.200000
     13 C24        -21.5860    -7.6480    13.1100 ca         1 TVK      -0.161300
     14 C26        -21.2970    -2.5560    11.9990 c3         1 TVK      -0.099100
     15 C27        -23.6970    -3.2600    11.6080 c3         1 TVK      -0.099100
     16 C31        -22.5810   -10.5690    10.0050 ca         1 TVK      -0.110500
     17 C35        -20.8770   -11.2650    12.1240 ca         1 TVK      -0.070000
     18 C36        -17.9890    -8.3130    16.8760 cx         1 TVK      -0.113900
     19 C37        -17.5620    -8.9210    15.5600 cx         1 TVK      -0.113900
     20 O2         -20.0220   -10.6100    17.8560 oh         1 TVK      -0.673000
     21 C4         -20.1700    -8.7050    15.4640 c3         1 TVK       0.194600
     22 O5         -20.3590    -9.4450    14.2420 os         1 TVK      -0.452000
     23 N7         -22.7670    -9.3170    14.2010 n          1 TVK      -0.447800
     24 C9         -23.7780   -11.6160    13.8360 ca         1 TVK       0.331300
     25 N15        -23.2390   -12.8600    13.8810 nb         1 TVK      -0.671000
     26 C18        -22.7380    -7.0820    13.6190 ca         1 TVK      -0.125600
     27 C20        -22.1330    -4.9000    12.7340 ca         1 TVK      -0.082300
     28 F23        -19.5540    -7.4100    11.8800 f          1 TVK      -0.164000
     29 C29        -21.5980   -10.0500    12.1900 ca         1 TVK      -0.081300
     30 C30        -22.4480    -9.7120    11.1110 ca         1 TVK      -0.070000
     31 C32        -21.8670   -11.7750     9.9610 ca         1 TVK       0.134000
     32 Cl2        -22.0530   -12.8580     8.5890 cl         1 TVK      -0.207000
     33 C34        -21.0120   -12.1210    11.0170 ca         1 TVK      -0.110500
     34 H38        -19.5900   -11.3060    15.9360 h1         1 TVK       0.032700
     35 H39        -18.1930   -11.1040    16.9990 h1         1 TVK       0.032700
     36 H43        -23.9890   -10.3820    15.5770 h1         1 TVK       0.084700
     37 H44        -22.3690   -11.0330    15.3520 h1         1 TVK       0.084700
     38 H45        -25.1790   -10.2490    12.9000 ha         1 TVK       0.137000
     39 H46        -25.9660   -11.9450    11.2200 ha         1 TVK       0.137000
     40 H47        -23.2110   -14.7580    13.0210 h4         1 TVK       0.033100
     41 H48        -23.9580    -5.3150    13.8670 ha         1 TVK       0.151000
     42 H49        -20.2280    -4.9130    11.6390 ha         1 TVK       0.136000
     43 H50        -20.4080    -2.6610    12.6330 hc         1 TVK       0.048700
     44 H52        -21.0320    -2.8530    10.9770 hc         1 TVK       0.048700
     45 H51        -21.5660    -1.4930    11.9720 hc         1 TVK       0.048700
     46 H53        -23.9630    -2.2050    11.4720 hc         1 TVK       0.048700
     47 H55        -23.4830    -3.6880    10.6210 hc         1 TVK       0.048700
     48 H54        -24.5720    -3.7770    12.0180 hc         1 TVK       0.048700
     49 H58        -23.2450   -10.3030     9.1860 ha         1 TVK       0.133000
     50 H60        -20.2240   -11.5630    12.9410 ha         1 TVK       0.130500
     51 H61        -17.5030    -8.6720    17.7800 hc         1 TVK       0.076950
     52 H62        -18.2390    -7.2550    16.8870 hc         1 TVK       0.076950
     53 H64        -16.7870    -9.6840    15.5830 hc         1 TVK       0.076950
     54 H63        -17.5310    -8.2720    14.6880 hc         1 TVK       0.076950
     55 H42        -20.1060   -11.5310    18.1900 ho         1 TVK       0.445000
     56 H40        -20.0290    -7.6370    15.2520 h1         1 TVK       0.047200
     57 H41        -21.0350    -8.8060    16.1320 h1         1 TVK       0.047200
     58 H56        -22.0850    -3.0500    14.4150 ho         1 TVK       0.445000
     59 H57        -23.0250    -8.7900    11.1350 ha         1 TVK       0.130500
     60 H59        -20.4620   -13.0570    10.9830 ha         1 TVK       0.133000
     61 C8         -23.2210   -10.5900    14.8210 c3         1 TVK       0.057700
     62 C25        -22.4720    -3.4060    12.5390 c3         1 TVK       0.223300
     63 Cl1        -25.1380   -14.7050    10.8220 cl         1 TVK      -0.191000
     64 O28        -22.8280    -2.8520    13.8060 oh         1 TVK      -0.657000
@<TRIPOS>BOND
     1     1     2 1   
     2     1    20 1   
     3     1    34 1   
     4     1    35 1   
     5     2    18 1   
     6     2    19 1   
     7     2    21 1   
     8     3    13 1   
     9     3    22 1   
    10     3    23 1   
    11     3    29 1   
    12     4     5 ar  
    13     4    24 ar  
    14     4    38 1   
    15     5     6 ar  
    16     5    39 1   
    17     6     7 ar  
    18     6    63 1   
    19     7    25 ar  
    20     7    40 1   
    21     8     9 2   
    22     8    23 1   
    23     8    26 1   
    24    10    26 ar  
    25    10    27 ar  
    26    10    41 1   
    27    11    12 ar  
    28    11    27 ar  
    29    11    42 1   
    30    12    13 ar  
    31    12    28 1   
    32    13    26 ar  
    33    14    43 1   
    34    14    44 1   
    35    14    45 1   
    36    14    62 1   
    37    15    46 1   
    38    15    47 1   
    39    15    48 1   
    40    15    62 1   
    41    16    30 ar  
    42    16    31 ar  
    43    16    49 1   
    44    17    29 ar  
    45    17    33 ar  
    46    17    50 1   
    47    18    19 1   
    48    18    51 1   
    49    18    52 1   
    50    19    53 1   
    51    19    54 1   
    52    20    55 1   
    53    21    22 1   
    54    21    56 1   
    55    21    57 1   
    56    23    61 1   
    57    24    25 ar  
    58    24    61 1   
    59    27    62 1   
    60    29    30 ar  
    61    30    59 1   
    62    31    32 1   
    63    31    33 ar  
    64    33    60 1   
    65    36    61 1   
    66    37    61 1   
    67    58    64 1   
    68    62    64 1   
@<TRIPOS>SUBSTRUCTURE
     1 TVK         1 TEMP              0 ****  ****    0 ROOT
