@<TRIPOS>MOLECULE
TVL
   70    75     1     0     0
SMALL
abcg2


@<TRIPOS>ATOM
      1 N1          43.4250    -5.7100    15.4330 n          1 TVL      -0.373800
      2 C4          42.5630    -1.6050    15.4210 ca         1 TVL      -0.147000
      3 C5          42.8130    -2.9720    15.5420 ca         1 TVL      -0.029300
      4 C6          44.0560    -3.4090    16.0050 ca         1 TVL      -0.121300
      5 C7          41.7450    -3.9590    15.1390 c6         1 TVL      -0.012100
      6 C8          42.0430    -5.3480    15.6550 cx         1 TVL       0.050400
      7 C10         43.9010    -6.6340    14.5610 c          1 TVL       0.619700
      8 C13         41.4190    -7.2170    11.7500 ca         1 TVL      -0.117500
      9 C15         42.0790    -9.3420    12.6720 ca         1 TVL      -0.117500
     10 C17         40.9550    -6.3730    15.6730 cx         1 TVL      -0.119900
     11 C20         45.1550    -6.5180    17.9210 ca         1 TVL      -0.057000
     12 C21         45.2610    -6.9930    19.2250 ca         1 TVL      -0.178000
     13 C22         44.7130    -6.2510    20.2730 ca         1 TVL       0.147100
     14 C24         43.9800    -4.5840    18.6900 ca         1 TVL      -0.057000
     15 C26         45.5570    -7.9030    23.4530 c3         1 TVL       0.175800
     16 C28         46.0320    -6.4810    26.4250 c5         1 TVL      -0.108400
     17 C1          45.0260    -2.4610    16.3290 ca         1 TVL      -0.057000
     18 C11         42.9570    -7.2980    13.6060 ca         1 TVL      -0.131600
     19 C12         42.2200    -6.5640    12.6800 ca         1 TVL      -0.076500
     20 C14         41.3390    -8.6060    11.7500 ca         1 TVL      -0.096000
     21 C16         42.8970    -8.6910    13.5860 ca         1 TVL      -0.076500
     22 C18         41.4080    -5.7590    16.9650 cx         1 TVL      -0.119900
     23 C19         44.5140    -5.3170    17.6300 ca         1 TVL      -0.138300
     24 C2          44.7820    -1.1030    16.2110 ca         1 TVL      -0.198000
     25 C23         44.0740    -5.0400    19.9940 ca         1 TVL      -0.178000
     26 C25         45.5170    -7.7760    21.9440 c3         1 TVL       0.161600
     27 C27         46.8290    -7.3870    25.4860 c5         1 TVL       0.164800
     28 C29         46.0830    -5.1560    25.6700 c5         1 TVL      -0.094400
     29 C3          43.5360    -0.6720    15.7550 ca         1 TVL       0.137100
     30 C30         45.9590    -5.5680    24.1900 c5         1 TVL       0.176500
     31 C31         46.7070    -4.6310    23.2510 c3         1 TVL      -0.075100
     32 C9          44.3910    -4.8760    16.1780 c6         1 TVL       0.215300
     33 N2          46.4630    -6.9700    24.1150 n3         1 TVL      -0.737600
     34 O1          45.0970    -6.9440    14.5190 o          1 TVL      -0.607100
     35 O2          43.2250     0.6520    15.6180 oh         1 TVL      -0.539100
     36 O3          44.7550    -6.6200    21.5800 os         1 TVL      -0.359100
     37 H1          41.5990    -1.2580    15.0650 ha         1 TVL       0.127000
     38 H2          41.6730    -3.9780    14.0470 hc         1 TVL       0.059700
     39 H3          40.7720    -3.6290    15.5070 hc         1 TVL       0.059700
     40 H4          40.8570    -6.6400    11.0270 ha         1 TVL       0.116000
     41 H5          42.0220   -10.4240    12.6750 ha         1 TVL       0.116000
     42 H6          40.0070    -6.0740    15.2450 hc         1 TVL       0.082200
     43 H7          41.2150    -7.4060    15.5010 hc         1 TVL       0.082200
     44 H8          45.5740    -7.1040    17.1120 ha         1 TVL       0.125500
     45 H9          45.7660    -7.9300    19.4100 ha         1 TVL       0.121500
     46 H10         43.4790    -3.6460    18.4950 ha         1 TVL       0.125500
     47 H11         44.5260    -7.8370    23.8380 h1         1 TVL       0.040700
     48 H12         45.9130    -8.9150    23.6590 h1         1 TVL       0.040700
     49 H14         46.4560    -6.4270    27.4290 hc         1 TVL       0.047700
     50 H15         45.9930    -2.7950    16.6880 ha         1 TVL       0.121000
     51 H16         42.2780    -5.4840    12.6750 ha         1 TVL       0.121500
     52 H17         40.7070    -9.1140    11.0330 ha         1 TVL       0.114000
     53 H18         43.4810    -9.2600    14.2980 ha         1 TVL       0.121500
     54 H19         40.7810    -5.0290    17.4590 hc         1 TVL       0.082200
     55 H20         41.9910    -6.3840    17.6250 hc         1 TVL       0.082200
     56 H21         45.5460    -0.3780    16.4680 ha         1 TVL       0.116000
     57 H22         43.6580    -4.4680    20.8140 ha         1 TVL       0.121500
     58 H23         45.0470    -8.6660    21.5140 h1         1 TVL       0.044200
     59 H24         46.5330    -7.6870    21.5500 h1         1 TVL       0.044200
     60 H25         46.6300    -8.4490    25.6310 h1         1 TVL       0.048200
     61 H26         47.9010    -7.2270    25.6450 h1         1 TVL       0.048200
     62 H27         47.0460    -4.6660    25.8400 hc         1 TVL       0.048700
     63 H28         45.2980    -4.4550    25.9580 hc         1 TVL       0.048700
     64 H29         44.9000    -5.5680    23.9120 h1         1 TVL       0.047700
     65 H30         46.3240    -3.6110    23.3430 hc         1 TVL       0.037700
     66 H31         47.7710    -4.6200    23.5000 hc         1 TVL       0.037700
     67 H32         46.5960    -4.9440    22.2130 hc         1 TVL       0.037700
     68 H33         45.3520    -5.0610    15.7020 h1         1 TVL       0.094700
     69 H35         43.9780     1.1950    15.8890 ho         1 TVL       0.463000
     70 H13         45.0010    -6.8360    26.5090 hc         1 TVL       0.047700
@<TRIPOS>BOND
     1     1     6 1   
     2     1     7 1   
     3     1    32 1   
     4     2     3 ar  
     5     2    29 ar  
     6     2    37 1   
     7     3     4 ar  
     8     3     5 1   
     9     4    17 ar  
    10     4    32 1   
    11     5     6 1   
    12     5    38 1   
    13     5    39 1   
    14     6    10 1   
    15     6    22 1   
    16     7    18 1   
    17     7    34 2   
    18     8    19 ar  
    19     8    20 ar  
    20     8    40 1   
    21     9    20 ar  
    22     9    21 ar  
    23     9    41 1   
    24    10    22 1   
    25    10    42 1   
    26    10    43 1   
    27    11    12 ar  
    28    11    23 ar  
    29    11    44 1   
    30    12    13 ar  
    31    12    45 1   
    32    13    25 ar  
    33    13    36 1   
    34    14    23 ar  
    35    14    25 ar  
    36    14    46 1   
    37    15    26 1   
    38    15    33 1   
    39    15    47 1   
    40    15    48 1   
    41    16    27 1   
    42    16    28 1   
    43    16    49 1   
    44    16    70 1   
    45    17    24 ar  
    46    17    50 1   
    47    18    19 ar  
    48    18    21 ar  
    49    19    51 1   
    50    20    52 1   
    51    21    53 1   
    52    22    54 1   
    53    22    55 1   
    54    23    32 1   
    55    24    29 ar  
    56    24    56 1   
    57    25    57 1   
    58    26    36 1   
    59    26    58 1   
    60    26    59 1   
    61    27    33 1   
    62    27    60 1   
    63    27    61 1   
    64    28    30 1   
    65    28    62 1   
    66    28    63 1   
    67    29    35 1   
    68    30    31 1   
    69    30    33 1   
    70    30    64 1   
    71    31    65 1   
    72    31    66 1   
    73    31    67 1   
    74    32    68 1   
    75    35    69 1   
@<TRIPOS>SUBSTRUCTURE
     1 TVL         1 TEMP              0 ****  ****    0 ROOT
