@<TRIPOS>MOLECULE
TVL
   70    75     1     0     0
SMALL
No Charge or Current Charge


@<TRIPOS>ATOM
      1 N1          43.3820    -5.6650    15.2870 n          1 TVL      -0.373800
      2 C4          42.2450    -1.5450    15.2720 ca         1 TVL      -0.147000
      3 C5          42.5780    -2.9070    15.3950 ca         1 TVL      -0.029300
      4 C6          43.8260    -3.2760    15.9500 ca         1 TVL      -0.121300
      5 C7          41.5920    -3.9710    14.9100 c6         1 TVL      -0.012100
      6 C8          41.9380    -5.3920    15.3920 cx         1 TVL       0.050400
      7 C10         43.9820    -6.7060    14.5270 c          1 TVL       0.619700
      8 C13         41.6350    -7.4900    11.5830 ca         1 TVL      -0.117500
      9 C15         42.6230    -9.5630    12.3780 ca         1 TVL      -0.117500
     10 C17         40.8620    -6.4620    15.2900 cx         1 TVL      -0.119900
     11 C20         45.1680    -6.2080    17.9880 ca         1 TVL      -0.057000
     12 C21         45.2330    -6.6220    19.3300 ca         1 TVL      -0.178000
     13 C22         44.4010    -6.0190    20.2960 ca         1 TVL       0.147100
     14 C24         43.4500    -4.5890    18.5660 ca         1 TVL      -0.057000
     15 C26         45.1070    -7.5330    23.6660 c3         1 TVL       0.175800
     16 C28         47.2390    -6.7660    26.6730 c5         1 TVL      -0.108400
     17 C1          44.7200    -2.2730    16.3760 ca         1 TVL      -0.057000
     18 C11         43.1850    -7.4490    13.4770 ca         1 TVL      -0.131600
     19 C12         42.3470    -6.7750    12.5620 ca         1 TVL      -0.076500
     20 C14         41.7670    -8.8850    11.4950 ca         1 TVL      -0.096000
     21 C16         43.3360    -8.8480    13.3570 ca         1 TVL      -0.076500
     22 C18         41.1980    -5.8740    16.6280 cx         1 TVL      -0.119900
     23 C19         44.2760    -5.1910    17.5920 ca         1 TVL      -0.138300
     24 C2          44.3770    -0.9160    16.2510 ca         1 TVL      -0.198000
     25 C23         43.5140    -5.0050    19.9070 ca         1 TVL      -0.178000
     26 C25         45.3130    -7.3960    22.1330 c3         1 TVL       0.161600
     27 C27         46.0810    -7.5040    25.9510 c5         1 TVL       0.164800
     28 C29         47.5870    -5.5880    25.7160 c5         1 TVL      -0.094400
     29 C3          43.1400    -0.5540    15.6990 ca         1 TVL       0.137100
     30 C30         46.4190    -5.5880    24.6930 c5         1 TVL       0.176500
     31 C31         46.7670    -4.7840    23.4200 c3         1 TVL      -0.075100
     32 C9          44.2250    -4.7560    16.1150 c6         1 TVL       0.215300
     33 N2          46.2190    -7.0560    24.5440 n3         1 TVL      -0.737600
     34 O1          45.1650    -6.9870    14.6810 o          1 TVL      -0.607100
     35 O2          42.8050     0.7600    15.5740 oh         1 TVL      -0.539100
     36 O3          44.4210    -6.3820    21.6260 os         1 TVL      -0.359100
     37 H1          41.2900    -1.2550    14.8420 ha         1 TVL       0.127000
     38 H2          41.5720    -3.9550    13.8140 hc         1 TVL       0.059700
     39 H3          40.5750    -3.7040    15.2280 hc         1 TVL       0.059700
     40 H4          40.9880    -6.9610    10.8870 ha         1 TVL       0.116000
     41 H5          42.7370   -10.6420    12.3040 ha         1 TVL       0.116000
     42 H6          39.9120    -6.1850    14.8380 hc         1 TVL       0.082200
     43 H7          41.1440    -7.4990    15.1380 hc         1 TVL       0.082200
     44 H8          45.8170    -6.6800    17.2530 ha         1 TVL       0.125500
     45 H9          45.9310    -7.4090    19.5970 ha         1 TVL       0.121500
     46 H10         42.7490    -3.8050    18.2900 ha         1 TVL       0.125500
     47 H11         44.1670    -7.0390    23.9490 h1         1 TVL       0.040700
     48 H12         44.9560    -8.6040    23.8570 h1         1 TVL       0.040700
     49 H14         48.1040    -7.4230    26.8170 hc         1 TVL       0.047700
     50 H15         45.6790    -2.5470    16.8100 ha         1 TVL       0.121000
     51 H16         42.2600    -5.6930    12.5920 ha         1 TVL       0.121500
     52 H17         41.2180    -9.4380    10.7370 ha         1 TVL       0.114000
     53 H18         43.9980    -9.3840    14.0340 ha         1 TVL       0.121500
     54 H19         40.4730    -5.2090    17.0900 hc         1 TVL       0.082200
     55 H20         41.7290    -6.5140    17.3280 hc         1 TVL       0.082200
     56 H21         45.0770    -0.1540    16.5860 ha         1 TVL       0.116000
     57 H22         42.8720    -4.5380    20.6490 ha         1 TVL       0.121500
     58 H23         45.0870    -8.3610    21.6620 h1         1 TVL       0.044200
     59 H24         46.3610    -7.1520    21.9170 h1         1 TVL       0.044200
     60 H25         45.1090    -7.2010    26.3680 h1         1 TVL       0.048200
     61 H26         46.1630    -8.5950    26.0540 h1         1 TVL       0.048200
     62 H27         48.5480    -5.7660    25.2190 hc         1 TVL       0.048700
     63 H28         47.6700    -4.6320    26.2450 hc         1 TVL       0.048700
     64 H29         45.5290    -5.1220    25.1420 h1         1 TVL       0.047700
     65 H30         47.1240    -3.7810    23.6830 hc         1 TVL       0.037700
     66 H31         47.5560    -5.2750    22.8370 hc         1 TVL       0.037700
     67 H32         45.8930    -4.6480    22.7770 hc         1 TVL       0.037700
     68 H33         45.2570    -4.8120    15.7380 h1         1 TVL       0.094700
     69 H35         43.5460     1.3020    15.9210 ho         1 TVL       0.463000
     70 H13         46.9290    -6.4170    27.6640 hc         1 TVL       0.047700
@<TRIPOS>BOND
     1     1     6 1   
     2     1     7 1   
     3     1    32 1   
     4     2     3 ar  
     5     2    29 ar  
     6     2    37 1   
     7     3     4 ar  
     8     3     5 1   
     9     4    17 ar  
    10     4    32 1   
    11     5     6 1   
    12     5    38 1   
    13     5    39 1   
    14     6    10 1   
    15     6    22 1   
    16     7    18 1   
    17     7    34 2   
    18     8    19 ar  
    19     8    20 ar  
    20     8    40 1   
    21     9    20 ar  
    22     9    21 ar  
    23     9    41 1   
    24    10    22 1   
    25    10    42 1   
    26    10    43 1   
    27    11    12 ar  
    28    11    23 ar  
    29    11    44 1   
    30    12    13 ar  
    31    12    45 1   
    32    13    25 ar  
    33    13    36 1   
    34    14    23 ar  
    35    14    25 ar  
    36    14    46 1   
    37    15    26 1   
    38    15    33 1   
    39    15    47 1   
    40    15    48 1   
    41    16    27 1   
    42    16    28 1   
    43    16    49 1   
    44    16    70 1   
    45    17    24 ar  
    46    17    50 1   
    47    18    19 ar  
    48    18    21 ar  
    49    19    51 1   
    50    20    52 1   
    51    21    53 1   
    52    22    54 1   
    53    22    55 1   
    54    23    32 1   
    55    24    29 ar  
    56    24    56 1   
    57    25    57 1   
    58    26    36 1   
    59    26    58 1   
    60    26    59 1   
    61    27    33 1   
    62    27    60 1   
    63    27    61 1   
    64    28    30 1   
    65    28    62 1   
    66    28    63 1   
    67    29    35 1   
    68    30    31 1   
    69    30    33 1   
    70    30    64 1   
    71    31    65 1   
    72    31    66 1   
    73    31    67 1   
    74    32    68 1   
    75    35    69 1   
@<TRIPOS>SUBSTRUCTURE
     1 TVL         1 TEMP              0 ****  ****    0 ROOT
