@<TRIPOS>MOLECULE
TVM
   41    42     1     0     0
SMALL
bcc


@<TRIPOS>ATOM
      1 C4          18.4700    -6.6780    -0.7860 c6         1 TVM       0.086100
      2 C3          17.8900    -8.0530    -1.1210 c6         1 TVM       0.163100
      3 C2          18.6720    -9.1620    -0.4310 c6         1 TVM       0.128100
      4 C1          20.1570    -9.0030    -0.7640 c6         1 TVM       0.316900
      5 O2          18.1820   -10.3920    -0.9020 oh         1 TVM      -0.594800
      6 O4          18.2140    -6.4090     0.5720 oh         1 TVM      -0.563800
      7 C5          19.9650    -6.6900    -1.1080 c6         1 TVM       0.126100
      8 C6          20.6370    -5.3800    -0.7640 c3         1 TVM       0.145400
      9 O5          20.6110    -7.7250    -0.3980 os         1 TVM      -0.411600
     10 O3          16.5460    -8.1770    -0.7490 os         1 TVM      -0.378600
     11 C24         15.6130    -7.5590    -1.5960 c3         1 TVM       0.184700
     12 C25         14.3550    -8.3860    -1.6570 ca         1 TVM      -0.056300
     13 C26         13.1300    -7.7740    -1.8810 ca         1 TVM      -0.164000
     14 C27         11.9820    -8.5510    -1.9940 ca         1 TVM      -0.097000
     15 C28         12.0440    -9.9270    -1.8750 ca         1 TVM      -0.161000
     16 C29         13.2760   -10.5440    -1.6430 ca         1 TVM       0.136100
     17 C30         14.4290    -9.7730    -1.5350 ca         1 TVM      -0.189000
     18 O31         13.2560   -11.8880    -1.5360 os         1 TVM      -0.322900
     19 C32         14.4730   -12.5660    -1.2960 c3         1 TVM       0.124700
     20 H4          17.9930    -5.9290    -1.4340 h1         1 TVM       0.036700
     21 H3          17.9970    -8.1910    -2.2100 h1         1 TVM       0.042700
     22 H2          18.5530    -9.0710     0.6580 h1         1 TVM       0.087700
     23 H1          20.2930    -9.1410    -1.8520 h2         1 TVM       0.022700
     24 HO6         22.3970    -4.6000    -0.9540 ho         1 TVM       0.407000
     25 HO2         18.5650   -11.0950    -0.3680 ho         1 TVM       0.419000
     26 HO4         18.2160    -5.4580     0.7080 ho         1 TVM       0.400000
     27 H5          20.0650    -6.8530    -2.1950 h1         1 TVM       0.047700
     28 H61         20.0500    -4.5690    -1.2160 h1         1 TVM       0.028200
     29 H62         20.6130    -5.2310     0.3230 h1         1 TVM       0.028200
     30 H28         16.0180    -7.4560    -2.6130 h1         1 TVM       0.032200
     31 H29         15.3750    -6.5450    -1.2530 h1         1 TVM       0.032200
     32 H30         13.0660    -6.6960    -1.9640 ha         1 TVM       0.127000
     33 H31         11.0250    -8.0760    -2.1700 ha         1 TVM       0.130000
     34 H32         11.1490   -10.5300    -1.9560 ha         1 TVM       0.143000
     35 H33         15.3920   -10.2300    -1.3490 ha         1 TVM       0.160000
     36 H34         14.2320   -13.6250    -1.2490 h1         1 TVM       0.041700
     37 H35         15.1980   -12.4040    -2.0980 h1         1 TVM       0.041700
     38 H36         14.9280   -12.2670    -0.3480 h1         1 TVM       0.041700
     39 O1          20.8640    -9.9430    -0.0430 oh         1 TVM      -0.580800
     40 HO1         21.7180   -10.0950    -0.4610 ho         1 TVM       0.424000
     41 O6          21.9570    -5.4010    -1.2530 oh         1 TVM      -0.585800
@<TRIPOS>BOND
     1     1     2 1   
     2     1     6 1   
     3     1     7 1   
     4     1    20 1   
     5     2     3 1   
     6     2    10 1   
     7     2    21 1   
     8     3     4 1   
     9     3     5 1   
    10     3    22 1   
    11     4     9 1   
    12     4    23 1   
    13     4    39 1   
    14     5    25 1   
    15     6    26 1   
    16     7     8 1   
    17     7     9 1   
    18     7    27 1   
    19     8    28 1   
    20     8    29 1   
    21     8    41 1   
    22    10    11 1   
    23    11    12 1   
    24    11    30 1   
    25    11    31 1   
    26    12    13 ar  
    27    12    17 ar  
    28    13    14 ar  
    29    13    32 1   
    30    14    15 ar  
    31    14    33 1   
    32    15    16 ar  
    33    15    34 1   
    34    16    17 ar  
    35    16    18 1   
    36    17    35 1   
    37    18    19 1   
    38    19    36 1   
    39    19    37 1   
    40    19    38 1   
    41    24    41 1   
    42    39    40 1   
@<TRIPOS>SUBSTRUCTURE
     1 TVM         1 TEMP              0 ****  ****    0 ROOT
