@<TRIPOS>MOLECULE
TVM
   41    42     1     0     0
SMALL
No Charge or Current Charge


@<TRIPOS>ATOM
      1 C4          18.5430    -6.8390    -1.0870 c6         1 TVM       0.109300
      2 C3          18.2410    -8.3660    -1.2590 c6         1 TVM       0.186300
      3 C2          19.0830    -9.2090    -0.2430 c6         1 TVM       0.151300
      4 C1          20.5950    -8.8230    -0.3730 c6         1 TVM       0.363300
      5 O2          18.8840   -10.6380    -0.4200 oh         1 TVM      -0.717000
      6 O4          17.9690    -6.3570     0.1490 oh         1 TVM      -0.686000
      7 C5          20.0900    -6.6100    -1.1570 c6         1 TVM       0.149300
      8 C6          20.4910    -5.1110    -0.9520 c3         1 TVM       0.168600
      9 O5          20.7740    -7.4210    -0.1680 os         1 TVM      -0.458000
     10 O3          16.8250    -8.6430    -1.0980 os         1 TVM      -0.425000
     11 C24         15.9380    -8.1570    -2.1220 c3         1 TVM       0.207900
     12 C25         14.5190    -8.6030    -1.7880 ca         1 TVM      -0.056300
     13 C26         13.5470    -7.6610    -1.3970 ca         1 TVM      -0.146000
     14 C27         12.2400    -8.0750    -1.0920 ca         1 TVM      -0.079000
     15 C28         11.8970    -9.4340    -1.1770 ca         1 TVM      -0.143000
     16 C29         12.8550   -10.3850    -1.5650 ca         1 TVM       0.136100
     17 C30         14.1680    -9.9660    -1.8710 ca         1 TVM      -0.171000
     18 O31         12.4610   -11.7070    -1.6290 os         1 TVM      -0.346100
     19 C32         13.3650   -12.7600    -2.0100 c3         1 TVM       0.147900
     20 H4          18.0910    -6.3010    -1.9320 h1         1 TVM       0.036700
     21 H3          18.5360    -8.6680    -2.2750 h1         1 TVM       0.042700
     22 H2          18.7650    -8.9170     0.7690 h1         1 TVM       0.087700
     23 H1          20.9760    -9.1020    -1.3680 h2         1 TVM       0.022700
     24 HO6         22.0690    -3.9390    -0.8390 ho         1 TVM       0.506000
     25 HO2         19.5810   -11.0720     0.1280 ho         1 TVM       0.518000
     26 HO4         17.0980    -6.8090     0.2410 ho         1 TVM       0.499000
     27 H5          20.4420    -6.9090    -2.1560 h1         1 TVM       0.047700
     28 H61         19.9530    -4.5090    -1.6970 h1         1 TVM       0.028200
     29 H62         20.1430    -4.7910     0.0390 h1         1 TVM       0.028200
     30 H28         16.2210    -8.5630    -3.1020 h1         1 TVM       0.032200
     31 H29         15.9730    -7.0620    -2.1870 h1         1 TVM       0.032200
     32 H30         13.8050    -6.6060    -1.3280 ha         1 TVM       0.109000
     33 H31         11.4940    -7.3430    -0.7900 ha         1 TVM       0.112000
     34 H32         10.8850    -9.7540    -0.9410 ha         1 TVM       0.125000
     35 H33         14.9290   -10.6810    -2.1700 ha         1 TVM       0.142000
     36 H34         12.8500   -13.7280    -1.9930 h1         1 TVM       0.041700
     37 H35         13.7490   -12.5970    -3.0250 h1         1 TVM       0.041700
     38 H36         14.2140   -12.8160    -1.3160 h1         1 TVM       0.041700
     39 O1          21.3680    -9.4550     0.6310 oh         1 TVM      -0.643000
     40 HO1         22.0250    -8.7700     0.8790 ho         1 TVM       0.463000
     41 O6          21.9100    -4.8840    -1.0700 oh         1 TVM      -0.708000
@<TRIPOS>BOND
     1     1     2 1   
     2     1     6 1   
     3     1     7 1   
     4     1    20 1   
     5     2     3 1   
     6     2    10 1   
     7     2    21 1   
     8     3     4 1   
     9     3     5 1   
    10     3    22 1   
    11     4     9 1   
    12     4    23 1   
    13     4    39 1   
    14     5    25 1   
    15     6    26 1   
    16     7     8 1   
    17     7     9 1   
    18     7    27 1   
    19     8    28 1   
    20     8    29 1   
    21     8    41 1   
    22    10    11 1   
    23    11    12 1   
    24    11    30 1   
    25    11    31 1   
    26    12    13 ar  
    27    12    17 ar  
    28    13    14 ar  
    29    13    32 1   
    30    14    15 ar  
    31    14    33 1   
    32    15    16 ar  
    33    15    34 1   
    34    16    17 ar  
    35    16    18 1   
    36    17    35 1   
    37    18    19 1   
    38    19    36 1   
    39    19    37 1   
    40    19    38 1   
    41    24    41 1   
    42    39    40 1   
@<TRIPOS>SUBSTRUCTURE
     1 TVM         1 TEMP              0 ****  ****    0 ROOT
