@<TRIPOS>MOLECULE
TVN
   66    66     1     0     0
SMALL
No Charge or Current Charge


@<TRIPOS>ATOM
      1 OBH          7.8930    -1.7800     0.5200 o          1 TVN      -0.897167
      2 PBF          7.8260    -0.7890    -0.5910 p5         1 TVN       1.251900
      3 OBI          8.0810     0.5780    -0.0560 o          1 TVN      -0.897167
      4 OBG          8.8750    -1.1190    -1.5970 o          1 TVN      -0.897167
      5 OBE          6.3800    -0.8480    -1.3040 os         1 TVN      -0.408500
      6 CBD          5.1470    -0.6170    -0.7490 ca         1 TVN       0.319100
      7 CBC          4.9570    -0.2690     0.6050 ca         1 TVN      -0.218500
      8 CBB          3.6630    -0.0510     1.1050 ca         1 TVN      -0.086500
      9 CBJ          4.0260    -0.7440    -1.5850 ca         1 TVN      -0.218500
     10 CBK          2.7310    -0.5240    -1.0880 ca         1 TVN      -0.086500
     11 CBA          2.5410    -0.1620     0.2600 ca         1 TVN      -0.243300
     12 CAZ          1.1370     0.0790     0.8210 c3         1 TVN       0.011900
     13 CAF          0.9390     2.4620    -0.2620 c3         1 TVN      -0.145400
     14 CAC          1.4940     3.1490     0.9960 c          1 TVN       0.604100
     15 OAD          0.8040     3.8270     1.7440 o          1 TVN      -0.642100
     16 NAB          2.8480     3.0070     1.1860 ns         1 TVN      -0.495900
     17 CAA          3.5940     3.5800     2.3050 c3         1 TVN       0.098300
     18 CAG          0.2710     1.0720    -0.0050 c3         1 TVN      -0.119700
     19 CAH         -1.1460     1.2020     0.5950 c          1 TVN       0.618100
     20 OAI         -1.3570     1.5690     1.7420 o          1 TVN      -0.606100
     21 NAJ         -2.1710     0.8440    -0.2530 ns         1 TVN      -0.502900
     22 CAK         -3.6170     0.9080     0.0690 c3         1 TVN       0.043700
     23 CAW         -4.2600     2.2510    -0.4040 c3         1 TVN      -0.059700
     24 CAX         -3.6960     3.4800     0.3490 c3         1 TVN      -0.093100
     25 CAY         -4.1760     2.4550    -1.9370 c3         1 TVN      -0.093100
     26 CAL         -4.3550    -0.3380    -0.5100 c          1 TVN       0.591100
     27 OAM         -3.8300    -1.1270    -1.2860 o          1 TVN      -0.604100
     28 NAN         -5.6590    -0.4970    -0.0870 ns         1 TVN      -0.495900
     29 CAO         -6.5720    -1.5850    -0.5100 c3         1 TVN       0.048700
     30 CAT         -8.0040    -1.0180    -0.7670 c          1 TVN       0.596100
     31 OAV         -8.3270     0.1390    -0.5420 o          1 TVN      -0.602100
     32 NAU         -8.9220    -1.8830    -1.2560 nt         1 TVN      -0.603000
     33 CAP         -6.5710    -2.7570     0.5110 c3         1 TVN      -0.177400
     34 CAQ         -5.2020    -3.4250     0.6370 c          1 TVN       0.603100
     35 OAS         -4.7940    -4.2600    -0.1510 o          1 TVN      -0.590100
     36 NAR         -4.4580    -3.0690     1.7070 nt         1 TVN      -0.610000
     37 HBC          5.8010    -0.1690     1.2790 ha         1 TVN       0.131000
     38 HBB          3.5350     0.2120     2.1530 ha         1 TVN       0.065500
     39 HBJ          4.1660    -1.0190    -2.6260 ha         1 TVN       0.131000
     40 HBK          1.8810    -0.6400    -1.7550 ha         1 TVN       0.065500
     41 HAZ          0.6070    -0.8800     0.8770 hc         1 TVN       0.043700
     42 HAZA         1.2000     0.4400     1.8560 hc         1 TVN       0.043700
     43 HAF          0.2010     3.1230    -0.7320 hc         1 TVN       0.062700
     44 HAFA         1.7680     2.2900    -0.9600 hc         1 TVN       0.062700
     45 HAA          3.1850     3.2040     3.2520 h1         1 TVN       0.033367
     46 HAAA         4.6490     3.2900     2.2260 h1         1 TVN       0.033367
     47 HAG          0.1360     0.6330    -1.0000 hc         1 TVN       0.064700
     48 HNAJ        -1.9050     0.5000    -1.1690 hn         1 TVN       0.326500
     49 HAK         -3.7350     0.8380     1.1590 h1         1 TVN       0.086700
     50 HAW         -5.3270     2.2080    -0.1500 hc         1 TVN       0.023700
     51 HAX         -2.6440     3.6520     0.0950 hc         1 TVN       0.042700
     52 HAXA        -4.2590     4.3840     0.0870 hc         1 TVN       0.042700
     53 HAXB        -3.7720     3.3390     1.4340 hc         1 TVN       0.042700
     54 HAY         -3.1330     2.5350    -2.2690 hc         1 TVN       0.042700
     55 HAYA        -4.6450     1.6210    -2.4730 hc         1 TVN       0.042700
     56 HAYB        -4.6960     3.3740    -2.2320 hc         1 TVN       0.042700
     57 HNAN        -6.0350     0.2290     0.5150 hn         1 TVN       0.320500
     58 HAO         -6.2320    -1.9730    -1.4800 h1         1 TVN       0.094700
     59 HNAU        -8.6690    -2.8410    -1.4490 hn         1 TVN       0.314500
     60 HNAA        -9.8610    -1.5560    -1.4320 hn         1 TVN       0.314500
     61 HAP         -6.8760    -2.3510     1.4830 hc         1 TVN       0.067200
     62 HAPA        -7.2880    -3.5190     0.1840 hc         1 TVN       0.067200
     63 HNAR        -4.8090    -2.3880     2.3640 hn         1 TVN       0.314000
     64 HNAB        -3.5520    -3.4920     1.8400 hn         1 TVN       0.314000
     65 H31          3.3340     2.3980     0.5370 hn         1 TVN       0.340500
     66 H32          3.5150     4.6740     2.2800 h1         1 TVN       0.033367
@<TRIPOS>BOND
     1     1     2 1   
     2     2     3 1   
     3     2     4 1   
     4     2     5 1   
     5     5     6 1   
     6     6     7 ar  
     7     6     9 ar  
     8     7     8 ar  
     9     7    37 1   
    10     8    11 ar  
    11     8    38 1   
    12     9    10 ar  
    13     9    39 1   
    14    10    11 ar  
    15    10    40 1   
    16    11    12 1   
    17    12    18 1   
    18    12    41 1   
    19    12    42 1   
    20    13    14 1   
    21    13    18 1   
    22    13    43 1   
    23    13    44 1   
    24    14    15 2   
    25    14    16 1   
    26    16    17 1   
    27    16    65 1   
    28    17    45 1   
    29    17    46 1   
    30    17    66 1   
    31    18    19 1   
    32    18    47 1   
    33    19    20 2   
    34    19    21 1   
    35    21    22 1   
    36    21    48 1   
    37    22    23 1   
    38    22    26 1   
    39    22    49 1   
    40    23    24 1   
    41    23    25 1   
    42    23    50 1   
    43    24    51 1   
    44    24    52 1   
    45    24    53 1   
    46    25    54 1   
    47    25    55 1   
    48    25    56 1   
    49    26    27 2   
    50    26    28 1   
    51    28    29 1   
    52    28    57 1   
    53    29    30 1   
    54    29    33 1   
    55    29    58 1   
    56    30    31 2   
    57    30    32 1   
    58    32    59 1   
    59    32    60 1   
    60    33    34 1   
    61    33    61 1   
    62    33    62 1   
    63    34    35 2   
    64    34    36 1   
    65    36    63 1   
    66    36    64 1   
@<TRIPOS>SUBSTRUCTURE
     1 TVN         1 TEMP              0 ****  ****    0 ROOT
