@<TRIPOS>MOLECULE
TVN
   66    66     1     0     0
SMALL
bcc


@<TRIPOS>ATOM
      1 OBH          8.1060    -1.2760     0.1240 o          1 TVN      -0.897167
      2 PBF          8.0310    -0.6280    -1.2440 p5         1 TVN       1.251900
      3 OBI          8.1230     0.8900    -1.2520 o          1 TVN      -0.897167
      4 OBG          8.7840    -1.3280    -2.3600 o          1 TVN      -0.897167
      5 OBE          6.3920    -0.9710    -1.7720 os         1 TVN      -0.408500
      6 CBD          5.3060    -0.7300    -1.0410 ca         1 TVN       0.319100
      7 CBC          5.2090     0.2760    -0.0730 ca         1 TVN      -0.236500
      8 CBB          4.0220     0.4710     0.6210 ca         1 TVN      -0.104500
      9 CBJ          4.1750    -1.5260    -1.2650 ca         1 TVN      -0.236500
     10 CBK          2.9990    -1.3170    -0.5640 ca         1 TVN      -0.104500
     11 CBA          2.8940    -0.3130     0.3970 ca         1 TVN      -0.243300
     12 CAZ          1.6080    -0.0900     1.1460 c3         1 TVN       0.011900
     13 CAF          0.7960     1.6580    -0.5170 c3         1 TVN      -0.145400
     14 CAC          1.1080     2.8020     0.4200 c          1 TVN       0.671100
     15 OAD          0.3290     3.1460     1.3010 o          1 TVN      -0.642100
     16 NAB          2.2810     3.4170     0.2170 ns         1 TVN      -0.562900
     17 CAA          2.7410     4.5050     1.0450 c3         1 TVN       0.098300
     18 CAG          0.4650     0.3590     0.2310 c3         1 TVN      -0.119700
     19 CAH         -0.8620     0.4190     0.9830 c          1 TVN       0.685100
     20 OAI         -0.9510     0.2190     2.1830 o          1 TVN      -0.606100
     21 NAJ         -1.9350     0.6410     0.1960 ns         1 TVN      -0.569900
     22 CAK         -3.2980     0.5510     0.6460 c3         1 TVN       0.043700
     23 CAW         -3.9780     1.9280     0.8110 c3         1 TVN      -0.059700
     24 CAX         -3.2730     2.7460     1.8850 c3         1 TVN      -0.093100
     25 CAY         -4.0530     2.6980    -0.5030 c3         1 TVN      -0.093100
     26 CAL         -4.0760    -0.3270    -0.3310 c          1 TVN       0.658100
     27 OAM         -3.6540    -0.6120    -1.4420 o          1 TVN      -0.604100
     28 NAN         -5.2660    -0.7590     0.1120 ns         1 TVN      -0.562900
     29 CAO         -6.1470    -1.5160    -0.7380 c3         1 TVN       0.048700
     30 CAT         -6.6040    -0.6760    -1.9350 c          1 TVN       0.663100
     31 OAV         -6.7990     0.5230    -1.8360 o          1 TVN      -0.602100
     32 NAU         -6.8210    -1.3830    -3.0490 nt         1 TVN      -0.670000
     33 CAP         -7.3710    -1.9600     0.0570 c3         1 TVN      -0.177400
     34 CAQ         -6.9790    -2.9060     1.1790 c          1 TVN       0.670100
     35 OAS         -6.2820    -3.8870     0.9670 o          1 TVN      -0.590100
     36 NAR         -7.4520    -2.5830     2.3880 nt         1 TVN      -0.677000
     37 HBC          6.0540     0.9240     0.1150 ha         1 TVN       0.149000
     38 HBB          3.9810     1.2570     1.3660 ha         1 TVN       0.083500
     39 HBJ          4.2270    -2.3180    -2.0030 ha         1 TVN       0.149000
     40 HBK          2.1480    -1.9580    -0.7680 ha         1 TVN       0.083500
     41 HAZ          1.3090    -1.0140     1.6470 hc         1 TVN       0.043700
     42 HAZA         1.7620     0.6470     1.9370 hc         1 TVN       0.043700
     43 HAF         -0.0440     1.9620    -1.1460 hc         1 TVN       0.062700
     44 HAFA         1.6260     1.4690    -1.2000 hc         1 TVN       0.062700
     45 HAA          2.9280     4.1860     2.0720 h1         1 TVN       0.033367
     46 HAAA         3.6710     4.8840     0.6300 h1         1 TVN       0.033367
     47 HAG          0.3330    -0.4060    -0.5430 hc         1 TVN       0.064700
     48 HNAJ        -1.7950     0.6900    -0.8010 hn         1 TVN       0.326500
     49 HAK         -3.2950     0.0580     1.6220 h1         1 TVN       0.086700
     50 HAW         -5.0010     1.7360     1.1530 hc         1 TVN       0.023700
     51 HAX         -2.2560     2.9980     1.5850 hc         1 TVN       0.042700
     52 HAXA        -3.8120     3.6780     2.0640 hc         1 TVN       0.042700
     53 HAXB        -3.2190     2.2040     2.8300 hc         1 TVN       0.042700
     54 HAY         -3.0560     2.9030    -0.8990 hc         1 TVN       0.042700
     55 HAYA        -4.6230     2.1650    -1.2640 hc         1 TVN       0.042700
     56 HAYB        -4.5410     3.6610    -0.3450 hc         1 TVN       0.042700
     57 HNAN        -5.5990    -0.4510     1.0120 hn         1 TVN       0.320500
     58 HAO         -5.6250    -2.4080    -1.0970 h1         1 TVN       0.094700
     59 HNAU        -6.5990    -2.3610    -3.1120 hn         1 TVN       0.314500
     60 HNAA        -7.1790    -0.9360    -3.8780 hn         1 TVN       0.314500
     61 HAP         -7.9140    -1.0870     0.4280 hc         1 TVN       0.067200
     62 HAPA        -8.0510    -2.4980    -0.6070 hc         1 TVN       0.067200
     63 HNAR        -8.0340    -1.7770     2.5360 hn         1 TVN       0.314000
     64 HNAB        -7.2680    -3.1740     3.1830 hn         1 TVN       0.314000
     65 H31          2.9140     3.0390    -0.4680 hn         1 TVN       0.340500
     66 H32          2.0180     5.3200     1.0670 h1         1 TVN       0.033367
@<TRIPOS>BOND
     1     1     2 1   
     2     2     3 1   
     3     2     4 1   
     4     2     5 1   
     5     5     6 1   
     6     6     7 ar  
     7     6     9 ar  
     8     7     8 ar  
     9     7    37 1   
    10     8    11 ar  
    11     8    38 1   
    12     9    10 ar  
    13     9    39 1   
    14    10    11 ar  
    15    10    40 1   
    16    11    12 1   
    17    12    18 1   
    18    12    41 1   
    19    12    42 1   
    20    13    14 1   
    21    13    18 1   
    22    13    43 1   
    23    13    44 1   
    24    14    15 2   
    25    14    16 1   
    26    16    17 1   
    27    16    65 1   
    28    17    45 1   
    29    17    46 1   
    30    17    66 1   
    31    18    19 1   
    32    18    47 1   
    33    19    20 2   
    34    19    21 1   
    35    21    22 1   
    36    21    48 1   
    37    22    23 1   
    38    22    26 1   
    39    22    49 1   
    40    23    24 1   
    41    23    25 1   
    42    23    50 1   
    43    24    51 1   
    44    24    52 1   
    45    24    53 1   
    46    25    54 1   
    47    25    55 1   
    48    25    56 1   
    49    26    27 2   
    50    26    28 1   
    51    28    29 1   
    52    28    57 1   
    53    29    30 1   
    54    29    33 1   
    55    29    58 1   
    56    30    31 2   
    57    30    32 1   
    58    32    59 1   
    59    32    60 1   
    60    33    34 1   
    61    33    61 1   
    62    33    62 1   
    63    34    35 2   
    64    34    36 1   
    65    36    63 1   
    66    36    64 1   
@<TRIPOS>SUBSTRUCTURE
     1 TVN         1 TEMP              0 ****  ****    0 ROOT
