@<TRIPOS>MOLECULE
TVO
   34    36     1     0     0
SMALL
abcg2


@<TRIPOS>ATOM
      1 C10          1.5130     7.3700     9.3510 ca         1 TVO      -0.061300
      2 C13         -0.1840     9.2720    10.5120 ca         1 TVO      -0.112000
      3 C15          0.4630     6.9600    10.1780 ca         1 TVO      -0.077300
      4 C02          0.0710     2.5090     9.5680 c5         1 TVO       0.124300
      5 C03          0.7700     1.2210     9.1410 c5         1 TVO       0.150800
      6 C05          2.3970     2.3960    10.3120 c5         1 TVO       0.153800
      7 C06          1.1290     3.2580    10.4400 c5         1 TVO       0.155500
      8 C08          1.8400     4.9490     8.7700 c6         1 TVO       0.169800
      9 C09          2.4380     6.3490     8.7360 c6         1 TVO      -0.030100
     10 C11          1.6970     8.7350     9.1140 ca         1 TVO      -0.111000
     11 C12          0.8600     9.6830     9.6850 ca         1 TVO      -0.108000
     12 C14         -0.3760     7.9180    10.7510 ca         1 TVO      -0.108000
     13 C16          0.2040     5.4950    10.4340 c6         1 TVO       0.218100
     14 N04          2.1790     1.6110     9.0880 n7         1 TVO      -0.867400
     15 N07          1.3590     4.6670    10.1200 n3         1 TVO      -0.724600
     16 H1          -0.8420    10.0020    10.9660 ha         1 TVO       0.112000
     17 H2          -0.1780     3.1100     8.6900 h1         1 TVO       0.046700
     18 H3           0.4250     0.8490     8.1750 h1         1 TVO       0.051700
     19 H4           0.5650     0.4530     9.9030 h1         1 TVO       0.051700
     20 H5           2.4890     1.7550    11.1980 h1         1 TVO       0.049700
     21 H6           3.3000     3.0020    10.2390 h1         1 TVO       0.049700
     22 H7           0.7700     3.2380    11.4710 h1         1 TVO       0.069700
     23 H8           1.0280     4.8790     8.0280 h1         1 TVO       0.045200
     24 H9           2.5910     4.2110     8.4940 h1         1 TVO       0.045200
     25 H10          3.3840     6.3440     9.2870 hc         1 TVO       0.055200
     26 H11          2.6730     6.6320     7.7070 hc         1 TVO       0.055200
     27 H12          2.5090     9.0510     8.4680 ha         1 TVO       0.110000
     28 H13          1.0180    10.7360     9.4890 ha         1 TVO       0.112000
     29 H14         -1.1870     7.5930    11.3940 ha         1 TVO       0.108000
     30 H15         -0.6830     5.1980     9.8430 h1         1 TVO       0.034700
     31 H16         -0.0580     5.3450    11.4840 h1         1 TVO       0.034700
     32 H17          2.7870     0.8020     9.0480 hn         1 TVO       0.417000
     33 O01         -1.1290     2.1750    10.2690 oh         1 TVO      -0.662000
     34 H20         -1.6540     2.9770    10.3800 ho         1 TVO       0.443000
@<TRIPOS>BOND
     1     1     3 ar  
     2     1     9 1   
     3     1    10 ar  
     4     2    11 ar  
     5     2    12 ar  
     6     2    16 1   
     7     3    12 ar  
     8     3    13 1   
     9     4     5 1   
    10     4     7 1   
    11     4    17 1   
    12     4    33 1   
    13     5    14 1   
    14     5    18 1   
    15     5    19 1   
    16     6     7 1   
    17     6    14 1   
    18     6    20 1   
    19     6    21 1   
    20     7    15 1   
    21     7    22 1   
    22     8     9 1   
    23     8    15 1   
    24     8    23 1   
    25     8    24 1   
    26     9    25 1   
    27     9    26 1   
    28    10    11 ar  
    29    10    27 1   
    30    11    28 1   
    31    12    29 1   
    32    13    15 1   
    33    13    30 1   
    34    13    31 1   
    35    14    32 1   
    36    33    34 1   
@<TRIPOS>SUBSTRUCTURE
     1 TVO         1 TEMP              0 ****  ****    0 ROOT
