@<TRIPOS>MOLECULE
TVO
   34    36     1     0     0
SMALL
No Charge or Current Charge


@<TRIPOS>ATOM
      1 C10          1.4690     7.4240     9.3520 ca         1 TVO      -0.061300
      2 C13         -0.1810     9.3360    10.5970 ca         1 TVO      -0.112000
      3 C15          0.4320     7.0040    10.2140 ca         1 TVO      -0.077300
      4 C02          0.0970     2.4720     9.4490 c5         1 TVO       0.124300
      5 C03          0.7630     1.0720     9.2920 c5         1 TVO       0.150800
      6 C05          2.4500     2.3550    10.2580 c5         1 TVO       0.153800
      7 C06          1.1060     3.1600    10.4520 c5         1 TVO       0.155500
      8 C08          1.8170     4.9540     8.7380 c6         1 TVO       0.169800
      9 C09          2.3840     6.3920     8.6900 c6         1 TVO      -0.030100
     10 C11          1.6790     8.7970     9.1250 ca         1 TVO      -0.111000
     11 C12          0.8550     9.7520     9.7440 ca         1 TVO      -0.108000
     12 C14         -0.3920     7.9670    10.8300 ca         1 TVO      -0.108000
     13 C16          0.1760     5.5120    10.4660 c6         1 TVO       0.218100
     14 N04          2.2010     1.3990     9.1450 n7         1 TVO      -0.867400
     15 N07          1.3130     4.6220    10.1050 n3         1 TVO      -0.724600
     16 H1          -0.8210    10.0750    11.0760 ha         1 TVO       0.112000
     17 H2           0.0930     2.9680     8.4700 h1         1 TVO       0.046700
     18 H3           0.3790     0.5290     8.4170 h1         1 TVO       0.051700
     19 H4           0.5890     0.4490    10.1820 h1         1 TVO       0.051700
     20 H5           2.6690     1.8010    11.1810 h1         1 TVO       0.049700
     21 H6           3.3200     2.9960    10.0610 h1         1 TVO       0.049700
     22 H7           0.7660     3.0450    11.4910 h1         1 TVO       0.069700
     23 H8           1.0030     4.8780     8.0020 h1         1 TVO       0.045200
     24 H9           2.6060     4.2620     8.4110 h1         1 TVO       0.045200
     25 H10          3.3580     6.4070     9.1970 hc         1 TVO       0.055200
     26 H11          2.5760     6.6710     7.6450 hc         1 TVO       0.055200
     27 H12          2.4830     9.1250     8.4690 ha         1 TVO       0.110000
     28 H13          1.0200    10.8120     9.5650 ha         1 TVO       0.112000
     29 H14         -1.1980     7.6520    11.4900 ha         1 TVO       0.108000
     30 H15         -0.7180     5.2290     9.8920 h1         1 TVO       0.034700
     31 H16         -0.0730     5.3780    11.5290 h1         1 TVO       0.034700
     32 H17          2.7830     0.5570     9.2530 hn         1 TVO       0.417000
     33 O01         -1.2430     2.3890     9.9610 oh         1 TVO      -0.662000
     34 H20         -1.5940     3.3060     9.9840 ho         1 TVO       0.443000
@<TRIPOS>BOND
     1     1     3 ar  
     2     1     9 1   
     3     1    10 ar  
     4     2    11 ar  
     5     2    12 ar  
     6     2    16 1   
     7     3    12 ar  
     8     3    13 1   
     9     4     5 1   
    10     4     7 1   
    11     4    17 1   
    12     4    33 1   
    13     5    14 1   
    14     5    18 1   
    15     5    19 1   
    16     6     7 1   
    17     6    14 1   
    18     6    20 1   
    19     6    21 1   
    20     7    15 1   
    21     7    22 1   
    22     8     9 1   
    23     8    15 1   
    24     8    23 1   
    25     8    24 1   
    26     9    25 1   
    27     9    26 1   
    28    10    11 ar  
    29    10    27 1   
    30    11    28 1   
    31    12    29 1   
    32    13    15 1   
    33    13    30 1   
    34    13    31 1   
    35    14    32 1   
    36    33    34 1   
@<TRIPOS>SUBSTRUCTURE
     1 TVO         1 TEMP              0 ****  ****    0 ROOT
