@<TRIPOS>MOLECULE
TVP
   29    30     1     0     0
SMALL
No Charge or Current Charge


@<TRIPOS>ATOM
      1 O           -1.1590     8.6110    23.5670 o          1 TVP      -0.607100
      2 C11         -0.3780     8.7110    22.6270 c          1 TVP       0.604100
      3 C12          0.1240    10.1070    22.2360 c3         1 TVP      -0.170100
      4 N            0.1270     7.5550    21.9610 n          1 TVP      -0.240400
      5 C2          -0.0280     6.2290    22.6450 c6         1 TVP       0.113700
      6 C1          -1.4240     5.6010    22.3780 c3         1 TVP      -0.101100
      7 C10          0.9410     7.5860    20.7620 ca         1 TVP      -0.035000
      8 C5           2.1630     6.8800    20.7780 ca         1 TVP      -0.098300
      9 C4           2.4160     5.9010    21.9180 c6         1 TVP      -0.026100
     10 C3           1.0830     5.2040    22.2590 c6         1 TVP      -0.087400
     11 C9           0.6990     8.4930    19.7080 ca         1 TVP      -0.125000
     12 C8           1.6210     8.6350    18.6570 ca         1 TVP      -0.099000
     13 C7           2.8170     7.9010    18.6670 ca         1 TVP      -0.118000
     14 C6           3.0900     7.0240    19.7290 ca         1 TVP      -0.091000
     15 H121         0.0100    10.8200    23.0600 hc         1 TVP       0.063700
     16 H122         1.1560    10.0660    21.8720 hc         1 TVP       0.063700
     17 H123        -0.4620    10.4660    21.3840 hc         1 TVP       0.063700
     18 H2           0.0600     6.3980    23.7280 h1         1 TVP       0.077700
     19 H11C        -1.5320     4.6420    22.8990 hc         1 TVP       0.044700
     20 H12C        -2.2310     6.2550    22.7270 hc         1 TVP       0.044700
     21 H13C        -1.5810     5.4230    21.3080 hc         1 TVP       0.044700
     22 H31C         1.2260     4.4800    23.0730 hc         1 TVP       0.051200
     23 H32C         0.7670     4.6210    21.3820 hc         1 TVP       0.051200
     24 H9          -0.2240     9.0660    19.6760 ha         1 TVP       0.120000
     25 H41C         3.1690     5.1530    21.6340 hc         1 TVP       0.055700
     26 H42C         2.8060     6.4340    22.7960 hc         1 TVP       0.055700
     27 H6           4.0190     6.4570    19.7350 ha         1 TVP       0.115000
     28 H8           1.4110     9.3190    17.8380 ha         1 TVP       0.116000
     29 H7           3.5330     8.0120    17.8550 ha         1 TVP       0.116000
@<TRIPOS>BOND
     1     1     2 2   
     2     2     3 1   
     3     2     4 1   
     4     3    15 1   
     5     3    16 1   
     6     3    17 1   
     7     4     5 1   
     8     4     7 1   
     9     5     6 1   
    10     5    10 1   
    11     5    18 1   
    12     6    19 1   
    13     6    20 1   
    14     6    21 1   
    15     7     8 ar  
    16     7    11 ar  
    17     8     9 1   
    18     8    14 ar  
    19     9    10 1   
    20     9    25 1   
    21     9    26 1   
    22    10    22 1   
    23    10    23 1   
    24    11    12 ar  
    25    11    24 1   
    26    12    13 ar  
    27    12    28 1   
    28    13    14 ar  
    29    13    29 1   
    30    14    27 1   
@<TRIPOS>SUBSTRUCTURE
     1 TVP         1 TEMP              0 ****  ****    0 ROOT
