@<TRIPOS>MOLECULE
TVP
   29    30     1     0     0
SMALL
abcg2


@<TRIPOS>ATOM
      1 O           -0.9700     8.5280    23.7210 o          1 TVP      -0.607100
      2 C11         -0.2390     8.6690    22.7380 c          1 TVP       0.604100
      3 C12          0.1940    10.0530    22.3090 c3         1 TVP      -0.170100
      4 N            0.2170     7.5900    22.0390 n          1 TVP      -0.240400
      5 C2          -0.0430     6.2350    22.5970 c6         1 TVP       0.113700
      6 C1          -1.3710     5.6900    22.0810 c3         1 TVP      -0.101100
      7 C10          1.0140     7.6740    20.8660 ca         1 TVP      -0.035000
      8 C5           2.1960     6.9250    20.8550 ca         1 TVP      -0.098300
      9 C4           2.4320     6.0400    22.0430 c6         1 TVP      -0.026100
     10 C3           1.1270     5.2800    22.3020 c6         1 TVP      -0.087400
     11 C9           0.6410     8.4250    19.7550 ca         1 TVP      -0.125000
     12 C8           1.4800     8.4800    18.6480 ca         1 TVP      -0.099000
     13 C7           2.6710     7.7600    18.6370 ca         1 TVP      -0.118000
     14 C6           3.0150     6.9730    19.7330 ca         1 TVP      -0.091000
     15 H121         0.1800    10.6860    23.1940 hc         1 TVP       0.063700
     16 H122         1.1810    10.0680    21.8540 hc         1 TVP       0.063700
     17 H123        -0.5180    10.4620    21.5900 hc         1 TVP       0.063700
     18 H2          -0.1120     6.3850    23.6720 h1         1 TVP       0.077700
     19 H11C        -1.5570     4.6990    22.5010 hc         1 TVP       0.044700
     20 H12C        -2.1960     6.3450    22.3600 hc         1 TVP       0.044700
     21 H13C        -1.3440     5.5990    20.9930 hc         1 TVP       0.044700
     22 H31C         1.2310     4.5910    23.1420 hc         1 TVP       0.051200
     23 H32C         0.8990     4.6790    21.4180 hc         1 TVP       0.051200
     24 H9          -0.2980     8.9600    19.7560 ha         1 TVP       0.120000
     25 H41C         3.2590     5.3540    21.8570 hc         1 TVP       0.055700
     26 H42C         2.6890     6.6400    22.9220 hc         1 TVP       0.055700
     27 H6           3.9270     6.3880    19.7180 ha         1 TVP       0.115000
     28 H8           1.1940     9.0740    17.7890 ha         1 TVP       0.116000
     29 H7           3.3220     7.7990    17.7730 ha         1 TVP       0.116000
@<TRIPOS>BOND
     1     1     2 2   
     2     2     3 1   
     3     2     4 1   
     4     3    15 1   
     5     3    16 1   
     6     3    17 1   
     7     4     5 1   
     8     4     7 1   
     9     5     6 1   
    10     5    10 1   
    11     5    18 1   
    12     6    19 1   
    13     6    20 1   
    14     6    21 1   
    15     7     8 ar  
    16     7    11 ar  
    17     8     9 1   
    18     8    14 ar  
    19     9    10 1   
    20     9    25 1   
    21     9    26 1   
    22    10    22 1   
    23    10    23 1   
    24    11    12 ar  
    25    11    24 1   
    26    12    13 ar  
    27    12    28 1   
    28    13    14 ar  
    29    13    29 1   
    30    14    27 1   
@<TRIPOS>SUBSTRUCTURE
     1 TVP         1 TEMP              0 ****  ****    0 ROOT
