@<TRIPOS>MOLECULE
TVQ
   18    17     1     0     0
SMALL
bcc


@<TRIPOS>ATOM
      1 C1           6.6390    -6.8360    22.9480 c3         1 TVQ      -0.039100
      2 C4          10.6660    -7.0960    23.0800 c1         1 TVQ       0.640300
      3 C3           8.5190    -8.2450    23.8730 c3         1 TVQ       0.281800
      4 C2           7.3550    -7.3200    24.1980 c3         1 TVQ      -0.075400
      5 N            9.6020    -7.5350    23.2840 n2         1 TVQ      -0.636600
      6 C            4.4510    -5.7900    21.7590 c3         1 TVQ      -0.062800
      7 O            4.3020    -6.7310    24.2650 o          1 TVQ      -0.478200
      8 S            5.1830    -5.8530    23.4100 s4         1 TVQ       0.150600
      9 S1          12.0830    -6.4860    22.6850 s          1 TVQ      -0.448900
     10 H1           6.3240    -7.6720    22.3200 h1         1 TVQ       0.082200
     11 H2           7.2870    -6.1770    22.3630 h1         1 TVQ       0.082200
     12 H3           8.2060    -9.0200    23.1720 h1         1 TVQ       0.063200
     13 H4           8.8790    -8.7420    24.7760 h1         1 TVQ       0.063200
     14 H5           7.7020    -6.4750    24.7990 hc         1 TVQ       0.068200
     15 H6           6.6670    -7.8770    24.8350 hc         1 TVQ       0.068200
     16 H7           4.1380    -6.7940    21.4740 h1         1 TVQ       0.080367
     17 H8           3.6000    -5.1130    21.7780 h1         1 TVQ       0.080367
     18 H9           5.1860    -5.4220    21.0440 h1         1 TVQ       0.080367
@<TRIPOS>BOND
     1     1     4 1   
     2     1     8 1   
     3     1    10 1   
     4     1    11 1   
     5     2     5 2   
     6     2     9 2   
     7     3     4 1   
     8     3     5 1   
     9     3    12 1   
    10     3    13 1   
    11     4    14 1   
    12     4    15 1   
    13     6     8 1   
    14     6    16 1   
    15     6    17 1   
    16     6    18 1   
    17     7     8 2   
@<TRIPOS>SUBSTRUCTURE
     1 TVQ         1 TEMP              0 ****  ****    0 ROOT
