@<TRIPOS>MOLECULE
TVQ
   18    17     1     0     0
SMALL
No Charge or Current Charge


@<TRIPOS>ATOM
      1 C1           6.6030    -6.9690    22.9740 c3         1 TVQ      -0.039100
      2 C4          10.5590    -7.0520    22.9040 c1         1 TVQ       0.417400
      3 C3           8.5670    -8.3580    23.9320 c3         1 TVQ       0.281800
      4 C2           7.3970    -7.3960    24.2310 c3         1 TVQ      -0.075400
      5 N            9.5710    -7.7040    23.0810 n2         1 TVQ      -0.636600
      6 C            4.5320    -5.6570    21.7120 c3         1 TVQ      -0.062800
      7 O            4.2060    -6.6540    24.2070 o          1 TVQ      -0.505000
      8 S            5.2080    -5.8390    23.4190 s4         1 TVQ       0.177400
      9 S1          11.8120    -6.0900    22.7070 s          1 TVQ      -0.226000
     10 H1           6.1830    -7.8480    22.4700 h1         1 TVQ       0.082200
     11 H2           7.2560    -6.4330    22.2740 h1         1 TVQ       0.082200
     12 H3           8.1760    -9.2600    23.4440 h1         1 TVQ       0.063200
     13 H4           9.0190    -8.6710    24.8830 h1         1 TVQ       0.063200
     14 H5           7.7840    -6.5050    24.7400 hc         1 TVQ       0.068200
     15 H6           6.7150    -7.8910    24.9330 hc         1 TVQ       0.068200
     16 H7           4.3670    -6.6510    21.2810 h1         1 TVQ       0.080367
     17 H8           3.5820    -5.1120    21.7670 h1         1 TVQ       0.080367
     18 H9           5.2500    -5.0950    21.1030 h1         1 TVQ       0.080367
@<TRIPOS>BOND
     1     1     4 1   
     2     1     8 1   
     3     1    10 1   
     4     1    11 1   
     5     2     5 2   
     6     2     9 2   
     7     3     4 1   
     8     3     5 1   
     9     3    12 1   
    10     3    13 1   
    11     4    14 1   
    12     4    15 1   
    13     6     8 1   
    14     6    16 1   
    15     6    17 1   
    16     6    18 1   
    17     7     8 2   
@<TRIPOS>SUBSTRUCTURE
     1 TVQ         1 TEMP              0 ****  ****    0 ROOT
