@<TRIPOS>MOLECULE
TVR
   27    28     1     0     0
SMALL
No Charge or Current Charge


@<TRIPOS>ATOM
      1 N1         -14.4250    -5.7550   -19.6200 ns         1 TVR      -0.514900
      2 C4         -14.2300    -4.6180   -20.3800 c          1 TVR       0.545000
      3 C5         -11.7570    -3.5090   -18.0130 ca         1 TVR       0.539900
      4 C6         -12.6330    -1.7950   -16.7220 ca         1 TVR       0.358900
      5 C7         -11.5240    -1.8090   -15.8580 ca         1 TVR      -0.169000
      6 C8         -10.4800    -2.7200   -16.0930 ca         1 TVR      -0.092000
      7 N          -11.9620    -4.3530   -19.1330 nh         1 TVR      -0.721300
      8 C          -13.4830    -7.9090   -18.8320 c3         1 TVR      -0.106100
      9 O          -15.1320    -4.1830   -21.0810 o          1 TVR      -0.566000
     10 C1         -13.4240    -6.3670   -18.7210 c6         1 TVR       0.091700
     11 C2         -11.9740    -5.8300   -18.9510 c6         1 TVR       0.172800
     12 C3         -12.8320    -3.9380   -20.2940 c6         1 TVR       0.110800
     13 C9         -10.5970    -3.5870   -17.1900 ca         1 TVR       0.087000
     14 F           -9.5930    -4.4610   -17.4520 f          1 TVR      -0.175000
     15 N2         -12.7540    -2.6260   -17.7820 nb         1 TVR      -0.706000
     16 H1         -15.3420    -6.1800   -19.6850 hn         1 TVR       0.315500
     17 H2         -13.4520    -1.0940   -16.5590 h4         1 TVR       0.028100
     18 H3         -11.4800    -1.1170   -15.0210 ha         1 TVR       0.131000
     19 H4          -9.6050    -2.7530   -15.4480 ha         1 TVR       0.137000
     20 H5         -12.7840    -8.3820   -18.1310 hc         1 TVR       0.047367
     21 H6         -14.4870    -8.2840   -18.6000 hc         1 TVR       0.047367
     22 H7         -13.2240    -8.2470   -19.8430 hc         1 TVR       0.047367
     23 H8         -13.7160    -6.0960   -17.6960 h1         1 TVR       0.050700
     24 H9         -11.3400    -6.1390   -18.1070 h1         1 TVR       0.077200
     25 H10        -11.5490    -6.3100   -19.8460 h1         1 TVR       0.077200
     26 H11        -12.3240    -4.1790   -21.2380 h1         1 TVR       0.093200
     27 H12        -13.0070    -2.8530   -20.3060 h1         1 TVR       0.093200
@<TRIPOS>BOND
     1     1     2 1   
     2     1    10 1   
     3     1    16 1   
     4     2     9 2   
     5     2    12 1   
     6     3     7 1   
     7     3    13 ar  
     8     3    15 ar  
     9     4     5 ar  
    10     4    15 ar  
    11     4    17 1   
    12     5     6 ar  
    13     5    18 1   
    14     6    13 ar  
    15     6    19 1   
    16     7    11 1   
    17     7    12 1   
    18     8    10 1   
    19     8    20 1   
    20     8    21 1   
    21     8    22 1   
    22    10    11 1   
    23    10    23 1   
    24    11    24 1   
    25    11    25 1   
    26    12    26 1   
    27    12    27 1   
    28    13    14 1   
@<TRIPOS>SUBSTRUCTURE
     1 TVR         1 TEMP              0 ****  ****    0 ROOT
