@<TRIPOS>MOLECULE
TVR
   27    28     1     0     0
SMALL
abcg2


@<TRIPOS>ATOM
      1 N1         -14.2990    -5.6100   -19.3900 ns         1 TVR      -0.514900
      2 C4         -14.1890    -4.5240   -20.1750 c          1 TVR       0.545000
      3 C5         -11.8100    -3.5690   -18.1640 ca         1 TVR       0.539900
      4 C6         -12.6680    -1.8200   -16.9150 ca         1 TVR       0.358900
      5 C7         -11.7340    -1.9720   -15.9060 ca         1 TVR      -0.169000
      6 C8         -10.7690    -2.9680   -16.0590 ca         1 TVR      -0.092000
      7 N          -11.8440    -4.3480   -19.3190 nh         1 TVR      -0.721300
      8 C          -13.3810    -7.7740   -18.6920 c3         1 TVR      -0.106100
      9 O          -15.1510    -4.0300   -20.7680 o          1 TVR      -0.566000
     10 C1         -13.2290    -6.2620   -18.6260 c6         1 TVR       0.091700
     11 C2         -11.8720    -5.8070   -19.1560 c6         1 TVR       0.172800
     12 C3         -12.7900    -3.9520   -20.3520 c6         1 TVR       0.110800
     13 C9         -10.8090    -3.7440   -17.1900 ca         1 TVR       0.087000
     14 F           -9.8360    -4.6690   -17.3820 f          1 TVR      -0.175000
     15 N2         -12.7130    -2.6010   -18.0000 nb         1 TVR      -0.706000
     16 H1         -15.2380    -5.9640   -19.2610 hn         1 TVR       0.315500
     17 H2         -13.4240    -1.0460   -16.8540 h4         1 TVR       0.028100
     18 H3         -11.7420    -1.3310   -15.0360 ha         1 TVR       0.131000
     19 H4          -9.9860    -3.1290   -15.3290 ha         1 TVR       0.137000
     20 H5         -12.6180    -8.2530   -18.0770 hc         1 TVR       0.047367
     21 H6         -14.3610    -8.0790   -18.3180 hc         1 TVR       0.047367
     22 H7         -13.2760    -8.1250   -19.7200 hc         1 TVR       0.047367
     23 H8         -13.3120    -5.9410   -17.5810 h1         1 TVR       0.050700
     24 H9         -11.0910    -6.1380   -18.4800 h1         1 TVR       0.077200
     25 H10        -11.6840    -6.2500   -20.1360 h1         1 TVR       0.077200
     26 H11        -12.4150    -4.3150   -21.3130 h1         1 TVR       0.093200
     27 H12        -12.8720    -2.8710   -20.4030 h1         1 TVR       0.093200
@<TRIPOS>BOND
     1     1     2 1   
     2     1    10 1   
     3     1    16 1   
     4     2     9 2   
     5     2    12 1   
     6     3     7 1   
     7     3    13 ar  
     8     3    15 ar  
     9     4     5 ar  
    10     4    15 ar  
    11     4    17 1   
    12     5     6 ar  
    13     5    18 1   
    14     6    13 ar  
    15     6    19 1   
    16     7    11 1   
    17     7    12 1   
    18     8    10 1   
    19     8    20 1   
    20     8    21 1   
    21     8    22 1   
    22    10    11 1   
    23    10    23 1   
    24    11    24 1   
    25    11    25 1   
    26    12    26 1   
    27    12    27 1   
    28    13    14 1   
@<TRIPOS>SUBSTRUCTURE
     1 TVR         1 TEMP              0 ****  ****    0 ROOT
