@<TRIPOS>MOLECULE
TVS
   37    37     1     0     0
SMALL
abcg2


@<TRIPOS>ATOM
      1 C8          -0.0780    36.6360    14.6680 c3         1 TVS      -0.181100
      2 C7          -0.0470    35.6380    15.7990 c          1 TVS       0.615100
      3 O7           0.7500    35.7280    16.7190 o          1 TVS      -0.586100
      4 N2          -0.9700    34.6600    15.7080 ns         1 TVS      -0.494900
      5 C2          -1.2520    33.7050    16.7470 c6         1 TVS       0.081700
      6 C3          -1.3720    32.2950    16.1790 c6         1 TVS       0.165300
      7 O3          -0.1210    31.9240    15.6650 oh         1 TVS      -0.639000
      8 C1          -2.5490    34.0970    17.4650 c6         1 TVS       0.374300
      9 O1          -2.3520    35.2990    18.1070 os         1 TVS      -0.417000
     10 CAK         -3.4660    36.1820    18.1310 c3         1 TVS       0.192800
     11 CAB         -3.5470    36.9930    16.8760 c2         1 TVS      -0.260200
     12 CAA         -3.4540    38.3160    16.8440 c2         1 TVS      -0.290000
     13 O5          -2.9010    33.1430    18.4300 os         1 TVS      -0.458000
     14 C5          -3.1580    31.8710    17.8650 c6         1 TVS       0.157300
     15 C6          -3.7650    30.9760    18.9220 c3         1 TVS       0.166600
     16 O6          -2.8110    30.6960    19.9180 oh         1 TVS      -0.711000
     17 C4          -1.8580    31.3340    17.2580 c6         1 TVS       0.103300
     18 O4          -2.0500    30.0780    16.6460 oh         1 TVS      -0.731000
     19 H81          0.9370    36.8870    14.3640 hc         1 TVS       0.058033
     20 H82         -0.6290    36.2870    13.7960 hc         1 TVS       0.058033
     21 H83         -0.5540    37.5530    15.0200 hc         1 TVS       0.058033
     22 HN2         -1.5990    34.6810    14.9210 hn         1 TVS       0.301500
     23 H2          -0.4340    33.7310    17.4710 h1         1 TVS       0.124700
     24 H3          -2.1330    32.3060    15.3790 h1         1 TVS       0.028700
     25 HO3         -0.2020    31.0300    15.3160 ho         1 TVS       0.456000
     26 H1          -3.3590    34.1690    16.7140 h2         1 TVS       0.010700
     27 HAK         -3.3320    36.8350    18.9960 h1         1 TVS       0.057700
     28 H64         -4.3970    35.6230    18.2860 h1         1 TVS       0.057700
     29 HAC         -3.7000    36.4470    15.9490 ha         1 TVS       0.162000
     30 HAA         -3.5320    38.8680    15.9170 ha         1 TVS       0.165000
     31 HAB         -3.3030    38.8980    17.7460 ha         1 TVS       0.165000
     32 H5          -3.9090    31.9620    17.0630 h1         1 TVS       0.041700
     33 H61         -4.6520    31.4770    19.3300 h1         1 TVS       0.031700
     34 H62         -4.1210    30.0650    18.4270 h1         1 TVS       0.031700
     35 HO6         -3.2060    30.0860    20.5470 ho         1 TVS       0.505000
     36 H4          -1.0940    31.2770    18.0440 h1         1 TVS       0.082700
     37 HO4         -1.8840    29.3870    17.2940 ho         1 TVS       0.517000
@<TRIPOS>BOND
     1     1     2 1   
     2     1    19 1   
     3     1    20 1   
     4     1    21 1   
     5     2     3 2   
     6     2     4 1   
     7     4     5 1   
     8     4    22 1   
     9     5     6 1   
    10     5     8 1   
    11     5    23 1   
    12     6     7 1   
    13     6    17 1   
    14     6    24 1   
    15     7    25 1   
    16     8     9 1   
    17     8    13 1   
    18     8    26 1   
    19     9    10 1   
    20    10    11 1   
    21    10    27 1   
    22    10    28 1   
    23    11    12 2   
    24    11    29 1   
    25    12    30 1   
    26    12    31 1   
    27    13    14 1   
    28    14    15 1   
    29    14    17 1   
    30    14    32 1   
    31    15    16 1   
    32    15    33 1   
    33    15    34 1   
    34    16    35 1   
    35    17    18 1   
    36    17    36 1   
    37    18    37 1   
@<TRIPOS>SUBSTRUCTURE
     1 TVS         1 TEMP              0 ****  ****    0 ROOT
