@<TRIPOS>MOLECULE
TVS
   37    37     1     0     0
SMALL
No Charge or Current Charge


@<TRIPOS>ATOM
      1 C8           0.4780    36.7280    14.7120 c3         1 TVS      -0.181100
      2 C7           0.2180    35.8180    15.9050 c          1 TVS       0.615100
      3 O7           0.7650    35.9790    16.9860 o          1 TVS      -0.586100
      4 N2          -0.6670    34.7930    15.6630 ns         1 TVS      -0.494900
      5 C2          -1.1430    33.8060    16.6660 c6         1 TVS       0.081700
      6 C3          -1.4520    32.4330    15.9970 c6         1 TVS       0.165300
      7 O3          -0.2940    31.8930    15.3430 oh         1 TVS      -0.639000
      8 C1          -2.4390    34.2800    17.3950 c6         1 TVS       0.374300
      9 O1          -2.2170    35.5200    18.0890 os         1 TVS      -0.417000
     10 CAK         -3.3770    36.1840    18.6180 c3         1 TVS       0.192800
     11 CAB         -4.2100    36.7010    17.4590 c2         1 TVS      -0.260200
     12 CAA         -3.7640    37.4830    16.4600 c2         1 TVS      -0.290000
     13 O5          -2.8540    33.2890    18.3560 os         1 TVS      -0.458000
     14 C5          -3.2240    32.0170    17.7690 c6         1 TVS       0.157300
     15 C6          -3.7870    31.1010    18.9070 c3         1 TVS       0.166600
     16 O6          -2.8370    30.8310    19.9580 oh         1 TVS      -0.711000
     17 C4          -1.9840    31.4060    17.0390 c6         1 TVS       0.103300
     18 O4          -2.2930    30.1540    16.3800 oh         1 TVS      -0.731000
     19 H81          1.1950    37.5260    14.9380 hc         1 TVS       0.058033
     20 H82          0.8050    36.1190    13.8620 hc         1 TVS       0.058033
     21 H83         -0.4770    37.1300    14.3560 hc         1 TVS       0.058033
     22 HN2         -1.0330    34.7320    14.7210 hn         1 TVS       0.301500
     23 H2          -0.3610    33.6600    17.4250 h1         1 TVS       0.124700
     24 H3          -2.2430    32.5940    15.2490 h1         1 TVS       0.028700
     25 HO3         -0.5180    30.9460    15.1930 ho         1 TVS       0.456000
     26 H1          -3.2350    34.4190    16.6480 h2         1 TVS       0.010700
     27 HAK         -3.0710    37.0280    19.2490 h1         1 TVS       0.057700
     28 H64         -3.9710    35.5030    19.2430 h1         1 TVS       0.057700
     29 HAC         -5.2550    36.3850    17.4890 ha         1 TVS       0.162000
     30 HAA         -4.4230    37.8200    15.6580 ha         1 TVS       0.165000
     31 HAB         -2.7250    37.8120    16.4100 ha         1 TVS       0.165000
     32 H5          -4.0300    32.1890    17.0400 h1         1 TVS       0.041700
     33 H61         -4.6730    31.5980    19.3240 h1         1 TVS       0.031700
     34 H62         -4.1330    30.1600    18.4590 h1         1 TVS       0.031700
     35 HO6         -3.3320    30.3920    20.6890 ho         1 TVS       0.505000
     36 H4          -1.1940    31.2510    17.7920 h1         1 TVS       0.082700
     37 HO4         -2.3480    29.4600    17.0800 ho         1 TVS       0.517000
@<TRIPOS>BOND
     1     1     2 1   
     2     1    19 1   
     3     1    20 1   
     4     1    21 1   
     5     2     3 2   
     6     2     4 1   
     7     4     5 1   
     8     4    22 1   
     9     5     6 1   
    10     5     8 1   
    11     5    23 1   
    12     6     7 1   
    13     6    17 1   
    14     6    24 1   
    15     7    25 1   
    16     8     9 1   
    17     8    13 1   
    18     8    26 1   
    19     9    10 1   
    20    10    11 1   
    21    10    27 1   
    22    10    28 1   
    23    11    12 2   
    24    11    29 1   
    25    12    30 1   
    26    12    31 1   
    27    13    14 1   
    28    14    15 1   
    29    14    17 1   
    30    14    32 1   
    31    15    16 1   
    32    15    33 1   
    33    15    34 1   
    34    16    35 1   
    35    17    18 1   
    36    17    36 1   
    37    18    37 1   
@<TRIPOS>SUBSTRUCTURE
     1 TVS         1 TEMP              0 ****  ****    0 ROOT
