@<TRIPOS>MOLECULE
TVT
   40    41     1     0     0
SMALL
No Charge or Current Charge


@<TRIPOS>ATOM
      1 C1           4.7850    -5.6890    17.2290 c3         1 TVT       0.223100
      2 N1           5.6470    -4.5930    17.7100 nu         1 TVT      -0.918100
      3 C2           5.2800    -3.5210    18.5060 ca         1 TVT       0.473900
      4 N2           3.9960    -3.4720    18.8820 nb         1 TVT      -0.340000
      5 C3           3.6380    -2.4380    19.6500 ca         1 TVT       0.442900
      6 N3           2.3170    -2.3570    20.0640 nu         1 TVT      -0.884900
      7 C4           1.2060    -3.1730    19.8770 cc         1 TVT       0.177000
      8 N4          -0.3030    -4.6270    19.2050 na         1 TVT       0.113800
      9 C5           0.9990    -4.1550    18.9600 cd         1 TVT      -0.161000
     10 N5          -0.9210    -3.9400    20.2520 nd         1 TVT      -0.501800
     11 C6           0.0050    -3.0800    20.6250 cc         1 TVT       0.238300
     12 N6          -1.6610    -7.6750    20.1380 n1         1 TVT      -0.429000
     13 C7          -0.2020    -2.0930    21.7430 c3         1 TVT      -0.124400
     14 N7           4.4280    -1.4500    20.0860 nb         1 TVT      -0.279000
     15 C8          -1.0250    -5.7170    18.4750 c3         1 TVT       0.199100
     16 C9          -0.1510    -6.3310    17.3440 c3         1 TVT      -0.099600
     17 C10         -2.3250    -5.1510    17.8380 c3         1 TVT      -0.099600
     18 C11         -1.3800    -6.8000    19.4190 c1         1 TVT       0.283900
     19 C12          5.7160    -1.5040    19.7060 ca         1 TVT       0.230900
     20 C13          6.2070    -2.5450    18.8950 ca         1 TVT      -0.458300
     21 C14          7.6750    -2.5820    18.4780 c3         1 TVT       0.382300
     22 F1           8.3850    -1.5400    18.9660 f          1 TVT      -0.120000
     23 F2           8.2890    -3.7050    18.9120 f          1 TVT      -0.120000
     24 F3           7.8120    -2.5460    17.1340 f          1 TVT      -0.120000
     25 H1           5.3650    -6.3930    16.6170 h1         1 TVT       0.043367
     26 H2           4.3550    -6.2410    18.0760 h1         1 TVT       0.043367
     27 H3           3.9640    -5.2940    16.6160 h1         1 TVT       0.043367
     28 H4           6.6270    -4.6120    17.4350 hn         1 TVT       0.511000
     29 H5           2.1640    -1.5840    20.7120 hn         1 TVT       0.523000
     30 H6           1.6470    -4.5350    18.1830 h4         1 TVT       0.178000
     31 H7          -1.1840    -2.2280    22.2140 hc         1 TVT       0.050700
     32 H8           0.5610    -2.2180    22.5200 hc         1 TVT       0.050700
     33 H9          -0.1490    -1.0640    21.3700 hc         1 TVT       0.050700
     34 H10          0.7740    -6.7640    17.7450 hc         1 TVT       0.059867
     35 H11         -0.6910    -7.1300    16.8180 hc         1 TVT       0.059867
     36 H12          0.1190    -5.5710    16.6000 hc         1 TVT       0.059867
     37 H13         -3.0080    -4.7600    18.6020 hc         1 TVT       0.059867
     38 H14         -2.0910    -4.3330    17.1460 hc         1 TVT       0.059867
     39 H15         -2.8600    -5.9260    17.2750 hc         1 TVT       0.059867
     40 H16          6.3520    -0.6960    20.0640 h4         1 TVT       0.035100
@<TRIPOS>BOND
     1     1     2 1   
     2     1    25 1   
     3     1    26 1   
     4     1    27 1   
     5     2     3 1   
     6     2    28 1   
     7     3     4 ar  
     8     3    20 ar  
     9     4     5 ar  
    10     5     6 1   
    11     5    14 ar  
    12     6     7 1   
    13     6    29 1   
    14     7     9 2   
    15     7    11 1   
    16     8     9 1   
    17     8    10 1   
    18     8    15 1   
    19     9    30 1   
    20    10    11 2   
    21    11    13 1   
    22    12    18 3   
    23    13    31 1   
    24    13    32 1   
    25    13    33 1   
    26    14    19 ar  
    27    15    16 1   
    28    15    17 1   
    29    15    18 1   
    30    16    34 1   
    31    16    35 1   
    32    16    36 1   
    33    17    37 1   
    34    17    38 1   
    35    17    39 1   
    36    19    20 ar  
    37    19    40 1   
    38    20    21 1   
    39    21    22 1   
    40    21    23 1   
    41    21    24 1   
@<TRIPOS>SUBSTRUCTURE
     1 TVT         1 TEMP              0 ****  ****    0 ROOT
