@<TRIPOS>MOLECULE
TVT
   40    41     1     0     0
SMALL
bcc


@<TRIPOS>ATOM
      1 C1           4.3590    -5.4660    17.1720 c3         1 TVT       0.223100
      2 N1           5.3960    -4.5750    17.6400 nu         1 TVT      -0.862900
      3 C2           5.1610    -3.5560    18.4710 ca         1 TVT       0.802200
      4 N2           3.9010    -3.4000    18.8750 nb         1 TVT      -0.866000
      5 C3           3.6250    -2.4040    19.7030 ca         1 TVT       0.968900
      6 N3           2.3530    -2.2640    20.1340 nu         1 TVT      -0.691300
      7 C4           1.2720    -3.0880    19.8650 cc         1 TVT      -0.026700
      8 N4          -0.1460    -4.5580    19.1110 na         1 TVT       0.092400
      9 C5           1.1240    -4.1120    18.9580 cd         1 TVT      -0.128300
     10 N5          -0.8070    -3.9050    20.0610 nd         1 TVT      -0.501800
     11 C6           0.0270    -3.0010    20.5330 cc         1 TVT       0.303600
     12 N6          -1.1040    -7.5580    20.2860 n1         1 TVT      -0.339800
     13 C7          -0.3560    -2.0500    21.6110 c3         1 TVT      -0.124400
     14 N7           4.4890    -1.4960    20.1740 nb         1 TVT      -0.805000
     15 C8          -0.7860    -5.6940    18.4630 c3         1 TVT       0.169800
     16 C9           0.0920    -6.2590    17.3470 c3         1 TVT      -0.099600
     17 C10         -2.1540    -5.2880    17.9100 c3         1 TVT      -0.099600
     18 C11         -0.9670    -6.7370    19.4940 c1         1 TVT       0.194700
     19 C12          5.7380    -1.6530    19.7750 ca         1 TVT       0.559200
     20 C13          6.1660    -2.6600    18.9290 ca         1 TVT      -0.588900
     21 C14          7.5930    -2.7930    18.5580 c3         1 TVT       0.746200
     22 F1           8.3510    -1.8410    19.1090 f          1 TVT      -0.241300
     23 F2           8.1110    -3.9760    18.9430 f          1 TVT      -0.241300
     24 F3           7.7970    -2.7250    17.2280 f          1 TVT      -0.241300
     25 H1           4.8260    -6.2220    16.5470 h1         1 TVT       0.043367
     26 H2           3.8540    -5.9650    18.0000 h1         1 TVT       0.043367
     27 H3           3.6100    -4.9420    16.5780 h1         1 TVT       0.043367
     28 H4           6.3210    -4.7350    17.2820 hn         1 TVT       0.455800
     29 H5           2.2000    -1.4970    20.7700 hn         1 TVT       0.467800
     30 H6           1.8100    -4.5210    18.2420 h4         1 TVT       0.196000
     31 H7          -1.3710    -2.2470    21.9530 hc         1 TVT       0.050700
     32 H8           0.3110    -2.1310    22.4710 hc         1 TVT       0.050700
     33 H9          -0.3160    -1.0150    21.2650 hc         1 TVT       0.050700
     34 H10          1.0510    -6.6210    17.7140 hc         1 TVT       0.059867
     35 H11         -0.4260    -7.0920    16.8760 hc         1 TVT       0.059867
     36 H12          0.2620    -5.4940    16.5910 hc         1 TVT       0.059867
     37 H13         -2.8030    -4.8990    18.6900 hc         1 TVT       0.059867
     38 H14         -2.0090    -4.5200    17.1510 hc         1 TVT       0.059867
     39 H15         -2.6360    -6.1480    17.4470 hc         1 TVT       0.059867
     40 H16          6.4450    -0.9270    20.1590 h4         1 TVT       0.035100
@<TRIPOS>BOND
     1     1     2 1   
     2     1    25 1   
     3     1    26 1   
     4     1    27 1   
     5     2     3 1   
     6     2    28 1   
     7     3     4 ar  
     8     3    20 ar  
     9     4     5 ar  
    10     5     6 1   
    11     5    14 ar  
    12     6     7 1   
    13     6    29 1   
    14     7     9 2   
    15     7    11 1   
    16     8     9 1   
    17     8    10 1   
    18     8    15 1   
    19     9    30 1   
    20    10    11 2   
    21    11    13 1   
    22    12    18 3   
    23    13    31 1   
    24    13    32 1   
    25    13    33 1   
    26    14    19 ar  
    27    15    16 1   
    28    15    17 1   
    29    15    18 1   
    30    16    34 1   
    31    16    35 1   
    32    16    36 1   
    33    17    37 1   
    34    17    38 1   
    35    17    39 1   
    36    19    20 ar  
    37    19    40 1   
    38    20    21 1   
    39    21    22 1   
    40    21    23 1   
    41    21    24 1   
@<TRIPOS>SUBSTRUCTURE
     1 TVT         1 TEMP              0 ****  ****    0 ROOT
