@<TRIPOS>MOLECULE
TVU
   56    59     1     0     0
SMALL
No Charge or Current Charge


@<TRIPOS>ATOM
      1 O5          -8.3470     1.6550    -0.1570 o          1 TVU      -0.516000
      2 S1          -6.9040     1.6130    -0.4210 s6         1 TVU       1.074000
      3 O4          -6.2800     2.6380    -1.2680 o          1 TVU      -0.516000
      4 C19         -6.0170     1.5410     1.1620 c6         1 TVU      -0.294900
      5 C18         -4.5210     1.1440     1.0100 c6         1 TVU      -0.076900
      6 C20         -6.4710    -0.0270    -1.0700 c6         1 TVU      -0.294900
      7 C21         -4.9420    -0.3110    -1.0550 c6         1 TVU      -0.076900
      8 C17         -4.3360    -0.2610     0.3750 c6         1 TVU       0.103700
      9 N1          -2.9090    -0.5940     0.3280 ns         1 TVU      -0.502900
     10 C16         -2.3840    -1.8640     0.2950 c          1 TVU       0.647700
     11 O3          -3.0850    -2.8640     0.3190 o          1 TVU      -0.587100
     12 C14         -0.9140    -1.9010     0.2300 cc         1 TVU      -0.315600
     13 C13         -0.1790    -3.0610     0.1920 cd         1 TVU       0.013000
     14 S            0.1240    -0.4810     0.1980 ss         1 TVU       0.231000
     15 C15          1.5550    -1.5080     0.0800 cc         1 TVU      -0.069800
     16 C12          1.2270    -2.8410     0.1210 cd         1 TVU      -0.229600
     17 C11          2.2600    -3.9020     0.0930 c          1 TVU       0.591600
     18 O2           1.9790    -5.0940     0.1220 o          1 TVU      -0.542000
     19 N            3.5950    -3.4350     0.0310 n          1 TVU      -0.277000
     20 C10          4.6800    -4.4420    -0.0130 c3         1 TVU       0.067300
     21 C9           3.9030    -2.0700    -0.0040 cd         1 TVU      -0.014400
     22 C8           2.9310    -1.0820     0.0520 cc         1 TVU      -0.089400
     23 C4           3.4210     0.3040    -0.0940 ca         1 TVU      -0.035800
     24 C3           2.6910     1.2630    -0.8270 ca         1 TVU      -0.101000
     25 C2           3.1570     2.5800    -0.9680 ca         1 TVU      -0.170000
     26 C5           4.6480     0.7000     0.4890 ca         1 TVU      -0.166000
     27 C6           5.1270     2.0240     0.3570 ca         1 TVU       0.116100
     28 O1           6.3210     2.4310     0.9330 os         1 TVU      -0.320100
     29 C7           7.1580     1.5420     1.6930 c3         1 TVU       0.145900
     30 C1           4.3760     2.9720    -0.3760 ca         1 TVU       0.119100
     31 O            4.8650     4.2630    -0.4940 os         1 TVU      -0.318100
     32 C            4.1670     5.2910    -1.2180 c3         1 TVU       0.144900
     33 H191        -6.1220     2.5370     1.6090 h1         1 TVU       0.106700
     34 H192        -6.5600     0.8130     1.7770 h1         1 TVU       0.106700
     35 H201        -7.0130    -0.7490    -0.4460 h1         1 TVU       0.106700
     36 H202        -6.8740    -0.0600    -2.0900 h1         1 TVU       0.106700
     37 H181        -3.9920     1.8990     0.4110 hc         1 TVU       0.069450
     38 H182        -4.0470     1.1560     2.0020 hc         1 TVU       0.069450
     39 H17         -4.8440    -1.0060     1.0080 h1         1 TVU       0.083700
     40 H211        -4.7610    -1.3030    -1.4920 hc         1 TVU       0.069450
     41 H212        -4.4210     0.4060    -1.7070 hc         1 TVU       0.069450
     42 H1          -2.2420     0.1650     0.3060 hn         1 TVU       0.315500
     43 H13         -0.6250    -4.0540     0.2190 ha         1 TVU       0.170000
     44 H101         4.5820    -5.0510    -0.9210 h1         1 TVU       0.059033
     45 H102         5.6640    -3.9580    -0.0170 h1         1 TVU       0.059033
     46 H103         4.6140    -5.0960     0.8650 h1         1 TVU       0.059033
     47 H9           4.9650    -1.8750    -0.1080 h4         1 TVU       0.204000
     48 H3           1.7760     0.9860    -1.3390 ha         1 TVU       0.119000
     49 H5           5.2070    -0.0200     1.0770 ha         1 TVU       0.119000
     50 H2           2.5630     3.2780    -1.5510 ha         1 TVU       0.122000
     51 H71C         6.6230     1.1550     2.5690 h1         1 TVU       0.040700
     52 H72C         7.4890     0.6960     1.0780 h1         1 TVU       0.040700
     53 H73C         8.0510     2.0730     2.0480 h1         1 TVU       0.040700
     54 HC1          3.1760     5.4710    -0.7830 h1         1 TVU       0.041700
     55 HC2          4.7300     6.2310    -1.1810 h1         1 TVU       0.041700
     56 HC3          4.0440     5.0100    -2.2720 h1         1 TVU       0.041700
@<TRIPOS>BOND
     1     1     2 2   
     2     2     3 2   
     3     2     4 1   
     4     2     6 1   
     5     4     5 1   
     6     4    33 1   
     7     4    34 1   
     8     5     8 1   
     9     5    37 1   
    10     5    38 1   
    11     6     7 1   
    12     6    35 1   
    13     6    36 1   
    14     7     8 1   
    15     7    40 1   
    16     7    41 1   
    17     8     9 1   
    18     8    39 1   
    19     9    10 1   
    20     9    42 1   
    21    10    11 2   
    22    10    12 1   
    23    12    13 2   
    24    12    14 1   
    25    13    16 1   
    26    13    43 1   
    27    14    15 1   
    28    15    16 2   
    29    15    22 1   
    30    16    17 1   
    31    17    18 2   
    32    17    19 1   
    33    19    20 1   
    34    19    21 1   
    35    20    44 1   
    36    20    45 1   
    37    20    46 1   
    38    21    22 2   
    39    21    47 1   
    40    22    23 1   
    41    23    24 ar  
    42    23    26 ar  
    43    24    25 ar  
    44    24    48 1   
    45    25    30 ar  
    46    25    50 1   
    47    26    27 ar  
    48    26    49 1   
    49    27    28 1   
    50    27    30 ar  
    51    28    29 1   
    52    29    51 1   
    53    29    52 1   
    54    29    53 1   
    55    30    31 1   
    56    31    32 1   
    57    32    54 1   
    58    32    55 1   
    59    32    56 1   
@<TRIPOS>SUBSTRUCTURE
     1 TVU         1 TEMP              0 ****  ****    0 ROOT
