@<TRIPOS>MOLECULE
TVU
   56    59     1     0     0
SMALL
abcg2


@<TRIPOS>ATOM
      1 O5          -8.2380     1.5740    -0.1350 o          1 TVU      -0.516000
      2 S1          -6.8250     1.3990    -0.4730 s6         1 TVU       1.074000
      3 O4          -6.2890     2.1510    -1.6110 o          1 TVU      -0.516000
      4 C19         -5.8130     1.7470     0.9590 c6         1 TVU      -0.294900
      5 C18         -4.3620     1.3620     0.7030 c6         1 TVU      -0.076900
      6 C20         -6.4690    -0.3340    -0.7230 c6         1 TVU      -0.294900
      7 C21         -4.9690    -0.5610    -0.8530 c6         1 TVU      -0.076900
      8 C17         -4.1980    -0.1270     0.3980 c6         1 TVU       0.103700
      9 N1          -2.7860    -0.4190     0.2610 ns         1 TVU      -0.502900
     10 C16         -2.2630    -1.6280     0.5400 c          1 TVU       0.647700
     11 O3          -2.9220    -2.5680     0.9560 o          1 TVU      -0.587100
     12 C14         -0.8060    -1.7750     0.3230 cc         1 TVU      -0.315600
     13 C13         -0.1570    -2.9650     0.2250 cd         1 TVU       0.013000
     14 S            0.2830    -0.4280     0.1770 ss         1 TVU       0.231000
     15 C15          1.6250    -1.4760    -0.0430 cc         1 TVU      -0.069800
     16 C12          1.2350    -2.8040     0.0090 cd         1 TVU      -0.229600
     17 C11          2.1930    -3.8790    -0.1080 c          1 TVU       0.591600
     18 O2           1.8970    -5.0660    -0.0660 o          1 TVU      -0.542000
     19 N            3.5000    -3.4490    -0.2650 n          1 TVU      -0.277000
     20 C10          4.5730    -4.4320    -0.3790 c3         1 TVU       0.067300
     21 C9           3.8570    -2.1340    -0.3060 cd         1 TVU      -0.014400
     22 C8           2.9830    -1.0970    -0.2020 cc         1 TVU      -0.089400
     23 C4           3.4380     0.3040    -0.2270 ca         1 TVU      -0.035800
     24 C3           2.8080     1.2550    -1.0120 ca         1 TVU      -0.101000
     25 C2           3.2550     2.5740    -1.0230 ca         1 TVU      -0.170000
     26 C5           4.5360     0.6910     0.5530 ca         1 TVU      -0.166000
     27 C6           4.9970     1.9950     0.5390 ca         1 TVU       0.116100
     28 O1           6.0430     2.4470     1.2510 os         1 TVU      -0.320100
     29 C7           6.7580     1.5260     2.0510 c3         1 TVU       0.145900
     30 C1           4.3430     2.9590    -0.2580 ca         1 TVU       0.119100
     31 O            4.8490     4.2020    -0.2000 os         1 TVU      -0.318100
     32 C            4.2150     5.2160    -0.9530 c3         1 TVU       0.144900
     33 H191        -5.9200     2.8140     1.1630 h1         1 TVU       0.106700
     34 H192        -6.2410     1.1900     1.7930 h1         1 TVU       0.106700
     35 H201        -6.8880    -0.8710     0.1300 h1         1 TVU       0.106700
     36 H202        -7.0090    -0.6360    -1.6230 h1         1 TVU       0.106700
     37 H181        -3.9610     1.9630    -0.1170 hc         1 TVU       0.069450
     38 H182        -3.7880     1.6160     1.5950 hc         1 TVU       0.069450
     39 H17         -4.5710    -0.6980     1.2520 h1         1 TVU       0.083700
     40 H211        -4.8100    -1.6270    -1.0240 hc         1 TVU       0.069450
     41 H212        -4.5830    -0.0360    -1.7290 hc         1 TVU       0.069450
     42 H1          -2.2360     0.2520    -0.2550 hn         1 TVU       0.315500
     43 H13         -0.6520    -3.9220     0.2980 ha         1 TVU       0.170000
     44 H101         4.1540    -5.4300    -0.3980 h1         1 TVU       0.059033
     45 H102         5.1320    -4.2660    -1.2970 h1         1 TVU       0.059033
     46 H103         5.2470    -4.3460     0.4720 h1         1 TVU       0.059033
     47 H9           4.9150    -1.9560    -0.4440 h4         1 TVU       0.204000
     48 H3           1.9790     0.9860    -1.6550 ha         1 TVU       0.119000
     49 H5           5.0100    -0.0470     1.1870 ha         1 TVU       0.119000
     50 H2           2.7420     3.2880    -1.6520 ha         1 TVU       0.122000
     51 H71C         6.1330     1.0990     2.8410 h1         1 TVU       0.040700
     52 H72C         7.1790     0.7110     1.4560 h1         1 TVU       0.040700
     53 H73C         7.5700     2.0830     2.5110 h1         1 TVU       0.040700
     54 HC1          3.1740     5.3570    -0.6510 h1         1 TVU       0.041700
     55 HC2          4.7650     6.1330    -0.7590 h1         1 TVU       0.041700
     56 HC3          4.2450     5.0080    -2.0260 h1         1 TVU       0.041700
@<TRIPOS>BOND
     1     1     2 2   
     2     2     3 2   
     3     2     4 1   
     4     2     6 1   
     5     4     5 1   
     6     4    33 1   
     7     4    34 1   
     8     5     8 1   
     9     5    37 1   
    10     5    38 1   
    11     6     7 1   
    12     6    35 1   
    13     6    36 1   
    14     7     8 1   
    15     7    40 1   
    16     7    41 1   
    17     8     9 1   
    18     8    39 1   
    19     9    10 1   
    20     9    42 1   
    21    10    11 2   
    22    10    12 1   
    23    12    13 2   
    24    12    14 1   
    25    13    16 1   
    26    13    43 1   
    27    14    15 1   
    28    15    16 2   
    29    15    22 1   
    30    16    17 1   
    31    17    18 2   
    32    17    19 1   
    33    19    20 1   
    34    19    21 1   
    35    20    44 1   
    36    20    45 1   
    37    20    46 1   
    38    21    22 2   
    39    21    47 1   
    40    22    23 1   
    41    23    24 ar  
    42    23    26 ar  
    43    24    25 ar  
    44    24    48 1   
    45    25    30 ar  
    46    25    50 1   
    47    26    27 ar  
    48    26    49 1   
    49    27    28 1   
    50    27    30 ar  
    51    28    29 1   
    52    29    51 1   
    53    29    52 1   
    54    29    53 1   
    55    30    31 1   
    56    31    32 1   
    57    32    54 1   
    58    32    55 1   
    59    32    56 1   
@<TRIPOS>SUBSTRUCTURE
     1 TVU         1 TEMP              0 ****  ****    0 ROOT
