@<TRIPOS>MOLECULE
TVV
   29    29     1     0     0
SMALL
abcg2


@<TRIPOS>ATOM
      1 C1          -1.2920    28.9220    17.3930 c6         1 TVV       0.359300
      2 C2          -1.7490    27.6700    16.6430 c6         1 TVV       0.154300
      3 O2          -3.1330    27.4800    16.7840 oh         1 TVV      -0.707000
      4 O5           0.1040    29.0520    17.3290 os         1 TVV      -0.457000
      5 C5           0.7750    27.9840    17.9610 c6         1 TVV       0.150300
      6 C6           2.2560    28.2940    17.9830 c3         1 TVV       0.168600
      7 O6           2.4730    29.4140    18.8070 oh         1 TVV      -0.708000
      8 C4           0.4740    26.6610    17.2510 c6         1 TVV       0.105300
      9 O4           0.9470    26.6340    15.9270 oh         1 TVV      -0.690000
     10 C3          -1.0430    26.4560    17.2290 c6         1 TVV       0.180300
     11 O3          -1.4430    25.3400    16.4730 os         1 TVV      -0.411000
     12 CAQ         -0.9770    24.0910    16.9160 c3         1 TVV       0.244700
     13 CAD         -1.4070    23.7590    18.2760 c1         1 TVV      -0.192100
     14 CAC         -1.7580    23.4850    19.3930 c1         1 TVV      -0.220000
     15 H1          -1.6040    28.8380    18.4500 h2         1 TVV       0.022700
     16 H2          -1.4630    27.7830    15.5870 h1         1 TVV       0.083700
     17 HO2         -3.5800    28.2390    16.3960 ho         1 TVV       0.517000
     18 H5           0.4290    27.8800    19.0030 h1         1 TVV       0.049700
     19 H61          2.7810    27.4050    18.3580 h1         1 TVV       0.027700
     20 H62          2.6070    28.4720    16.9600 h1         1 TVV       0.027700
     21 HO6          3.4030    29.6490    18.7510 ho         1 TVV       0.506000
     22 H4           0.9320    25.8640    17.8520 h1         1 TVV       0.039700
     23 HO4          1.8670    26.3570    15.9290 ho         1 TVV       0.499000
     24 H3          -1.3670    26.3420    18.2760 h1         1 TVV       0.053700
     25 H65         -1.3800    23.3500    16.2220 h1         1 TVV       0.060700
     26 HAQ          0.1140    24.0070    16.8580 h1         1 TVV       0.060700
     27 HAD         -2.0680    23.2400    20.3830 ha         1 TVV       0.255000
     28 O1          -1.8670    30.0190    16.7840 oh         1 TVV      -0.644000
     29 HO1         -1.8960    30.7560    17.4040 ho         1 TVV       0.462000
@<TRIPOS>BOND
     1     1     2 1   
     2     1     4 1   
     3     1    15 1   
     4     1    28 1   
     5     2     3 1   
     6     2    10 1   
     7     2    16 1   
     8     3    17 1   
     9     4     5 1   
    10     5     6 1   
    11     5     8 1   
    12     5    18 1   
    13     6     7 1   
    14     6    19 1   
    15     6    20 1   
    16     7    21 1   
    17     8     9 1   
    18     8    10 1   
    19     8    22 1   
    20     9    23 1   
    21    10    11 1   
    22    10    24 1   
    23    11    12 1   
    24    12    13 1   
    25    12    25 1   
    26    12    26 1   
    27    13    14 3   
    28    14    27 1   
    29    28    29 1   
@<TRIPOS>SUBSTRUCTURE
     1 TVV         1 TEMP              0 ****  ****    0 ROOT
