@<TRIPOS>MOLECULE
TVV
   29    29     1     0     0
SMALL
No Charge or Current Charge


@<TRIPOS>ATOM
      1 C1          -1.3990    28.9440    17.4660 c6         1 TVV       0.359300
      2 C2          -1.8480    27.6670    16.6790 c6         1 TVV       0.154300
      3 O2          -3.2910    27.5010    16.7280 oh         1 TVV      -0.707000
      4 O5           0.0190    29.1120    17.3930 os         1 TVV      -0.457000
      5 C5           0.7520    28.0100    17.9870 c6         1 TVV       0.150300
      6 C6           2.2720    28.3800    18.0360 c3         1 TVV       0.168600
      7 O6           2.5380    29.5760    18.7960 oh         1 TVV      -0.708000
      8 C4           0.4620    26.6780    17.2130 c6         1 TVV       0.105300
      9 O4           0.9520    26.7160    15.8500 oh         1 TVV      -0.690000
     10 C3          -1.0880    26.4190    17.2390 c6         1 TVV       0.180300
     11 O3          -1.4750    25.2180    16.5060 os         1 TVV      -0.411000
     12 CAQ         -0.9350    23.9430    16.9190 c3         1 TVV       0.244700
     13 CAD         -1.4420    23.5830    18.2550 c1         1 TVV      -0.192100
     14 CAC         -1.8400    23.3080    19.3660 c1         1 TVV      -0.220000
     15 H1          -1.7050    28.8680    18.5200 h2         1 TVV       0.022700
     16 H2          -1.5290    27.8030    15.6340 h1         1 TVV       0.083700
     17 HO2         -3.6660    28.3920    16.5310 ho         1 TVV       0.517000
     18 H5           0.4140    27.8890    19.0280 h1         1 TVV       0.049700
     19 H61          2.8160    27.5320    18.4730 h1         1 TVV       0.027700
     20 H62          2.6330    28.5060    17.0070 h1         1 TVV       0.027700
     21 HO6          3.5000    29.7690    18.6990 ho         1 TVV       0.506000
     22 H4           0.9550    25.8630    17.7630 h1         1 TVV       0.039700
     23 HO4          1.8890    26.4130    15.8600 ho         1 TVV       0.499000
     24 H3          -1.3930    26.2940    18.2880 h1         1 TVV       0.053700
     25 H65         -1.2430    23.1610    16.2120 h1         1 TVV       0.060700
     26 HAQ          0.1620    23.9540    16.9320 h1         1 TVV       0.060700
     27 HAD         -2.2040    23.0570    20.3440 ha         1 TVV       0.255000
     28 O1          -1.9480    30.1160    16.8900 oh         1 TVV      -0.644000
     29 HO1         -1.2220    30.7700    16.9650 ho         1 TVV       0.462000
@<TRIPOS>BOND
     1     1     2 1   
     2     1     4 1   
     3     1    15 1   
     4     1    28 1   
     5     2     3 1   
     6     2    10 1   
     7     2    16 1   
     8     3    17 1   
     9     4     5 1   
    10     5     6 1   
    11     5     8 1   
    12     5    18 1   
    13     6     7 1   
    14     6    19 1   
    15     6    20 1   
    16     7    21 1   
    17     8     9 1   
    18     8    10 1   
    19     8    22 1   
    20     9    23 1   
    21    10    11 1   
    22    10    24 1   
    23    11    12 1   
    24    12    13 1   
    25    12    25 1   
    26    12    26 1   
    27    13    14 3   
    28    14    27 1   
    29    28    29 1   
@<TRIPOS>SUBSTRUCTURE
     1 TVV         1 TEMP              0 ****  ****    0 ROOT
