@<TRIPOS>MOLECULE
TVW
   15    16     1     0     0
SMALL
No Charge or Current Charge


@<TRIPOS>ATOM
      1 C1           4.6870    -4.0290    18.6760 ca         1 TVW       0.456900
      2 N1           4.5210    -5.1350    17.9130 nv         1 TVW      -1.077900
      3 C2           3.8460    -2.5730    20.2180 ca         1 TVW       0.179900
      4 N2           3.6570    -3.6790    19.4560 nb         1 TVW      -0.318000
      5 C3           5.9890    -2.1650    19.4760 ca         1 TVW       0.005000
      6 N3           4.9600    -1.7980    20.2670 nb         1 TVW      -0.181000
      7 C4           5.8660    -3.2790    18.6750 ca         1 TVW      -0.298000
      8 N4           7.8870    -2.3630    18.3840 na         1 TVW       0.010500
      9 C5           7.0900    -3.4200    17.9600 cc         1 TVW      -0.156100
     10 N5           7.2390    -1.5560    19.3300 nc         1 TVW      -0.263400
     11 H1           3.7480    -5.7520    18.1470 hn         1 TVW       0.499500
     12 H2           5.3510    -5.5790    17.5320 hn         1 TVW       0.499500
     13 H3           3.0170    -2.2740    20.8570 h5         1 TVW       0.043100
     14 H4           8.8330    -2.1530    18.0780 hn         1 TVW       0.376000
     15 H5           7.4460    -4.1340    17.2220 h4         1 TVW       0.225000
@<TRIPOS>BOND
     1     1     2 1   
     2     1     4 ar  
     3     1     7 ar  
     4     2    11 1   
     5     2    12 1   
     6     3     4 ar  
     7     3     6 ar  
     8     3    13 1   
     9     5     6 ar  
    10     5     7 ar  
    11     5    10 2   
    12     7     9 2   
    13     8     9 1   
    14     8    10 1   
    15     8    14 1   
    16     9    15 1   
@<TRIPOS>SUBSTRUCTURE
     1 TVW         1 TEMP              0 ****  ****    0 ROOT
