@<TRIPOS>MOLECULE
TVW
   15    16     1     0     0
SMALL
bcc


@<TRIPOS>ATOM
      1 C1           4.7060    -4.1010    18.7080 ca         1 TVW       0.785200
      2 N1           4.5200    -5.2150    18.0030 nv         1 TVW      -0.967500
      3 C2           3.9340    -2.5390    20.2050 ca         1 TVW       0.705900
      4 N2           3.7350    -3.6670    19.4990 nb         1 TVW      -0.844000
      5 C3           5.9850    -2.1810    19.4400 ca         1 TVW       0.333300
      6 N3           4.9790    -1.7570    20.2420 nb         1 TVW      -0.707000
      7 C4           5.9110    -3.3510    18.6460 ca         1 TVW      -0.428600
      8 N4           7.8040    -2.3430    18.4220 na         1 TVW       0.060800
      9 C5           7.1350    -3.4120    17.9950 cc         1 TVW      -0.106100
     10 N5           7.1540    -1.5720    19.2930 nc         1 TVW      -0.263400
     11 H1           3.6530    -5.7200    18.0790 hn         1 TVW       0.444300
     12 H2           5.2310    -5.5880    17.3970 hn         1 TVW       0.444300
     13 H3           3.0940    -2.2490    20.8300 h5         1 TVW       0.043100
     14 H4           8.7400    -2.0840    18.1420 hn         1 TVW       0.325700
     15 H5           7.5570    -4.1100    17.2910 h4         1 TVW       0.175000
@<TRIPOS>BOND
     1     1     2 1   
     2     1     4 ar  
     3     1     7 ar  
     4     2    11 1   
     5     2    12 1   
     6     3     4 ar  
     7     3     6 ar  
     8     3    13 1   
     9     5     6 ar  
    10     5     7 ar  
    11     5    10 2   
    12     7     9 2   
    13     8     9 1   
    14     8    10 1   
    15     8    14 1   
    16     9    15 1   
@<TRIPOS>SUBSTRUCTURE
     1 TVW         1 TEMP              0 ****  ****    0 ROOT
