@<TRIPOS>MOLECULE
TVX
   63    67     1     0     0
SMALL
No Charge or Current Charge


@<TRIPOS>ATOM
      1 N1          43.2010    -4.9500    15.2900 n          1 TVX      -0.374800
      2 C4          42.7750    -0.7000    15.4230 ca         1 TVX      -0.147000
      3 C5          42.8880    -2.1010    15.5020 ca         1 TVX      -0.029300
      4 C6          44.1150    -2.6840    15.8980 ca         1 TVX      -0.122300
      5 C7          41.6870    -2.9760    15.1410 c6         1 TVX      -0.012100
      6 C8          41.8470    -4.4450    15.5740 cx         1 TVX       0.050400
      7 C10         43.5210    -6.0590    14.4600 c          1 TVX       0.619700
      8 C13         40.7360    -6.3770    11.8280 ca         1 TVX      -0.117500
      9 C15         41.4530    -8.6020    12.4900 ca         1 TVX      -0.117500
     10 C17         44.4350    -4.6840    17.4680 ca         1 TVX      -0.137300
     11 C20         44.7460    -5.5830    20.1350 ca         1 TVX       0.146100
     12 C21         45.3410    -6.2940    19.0710 ca         1 TVX      -0.177500
     13 C22         45.1850    -5.8440    17.7480 ca         1 TVX      -0.057500
     14 C24         45.5590    -7.3010    23.3870 c3         1 TVX       0.163800
     15 C26         46.5060    -6.8310    25.6170 c3         1 TVX       0.149600
     16 C28         40.6020    -5.3190    15.6040 cx         1 TVX      -0.119400
     17 C1          45.2090    -1.8530    16.2120 ca         1 TVX      -0.057000
     18 C11         42.4900    -6.6360    13.5150 ca         1 TVX      -0.131600
     19 C12         41.6710    -5.8120    12.7120 ca         1 TVX      -0.076500
     20 C14         40.6210    -7.7720    11.7210 ca         1 TVX      -0.096000
     21 C16         42.3890    -8.0370    13.3740 ca         1 TVX      -0.076500
     22 C18         43.8460    -3.9750    18.5380 ca         1 TVX      -0.057500
     23 C19         44.0020    -4.4260    19.8600 ca         1 TVX      -0.177500
     24 C2          45.0860    -0.4550    16.1320 ca         1 TVX      -0.198000
     25 C23         45.6170    -7.1430    21.8420 c3         1 TVX       0.161600
     26 C25         46.3500    -5.0070    23.9810 c3         1 TVX       0.149600
     27 C27         41.1930    -4.8250    16.8910 cx         1 TVX      -0.119400
     28 C3          43.8690     0.1190    15.7380 ca         1 TVX       0.138100
     29 C9          44.2780    -4.2130    16.0100 c6         1 TVX       0.215300
     30 N2          46.5130    -6.4680    24.1820 n3         1 TVX      -0.719600
     31 O1          44.6510    -6.5350    14.4650 o          1 TVX      -0.607100
     32 O2          43.7450     1.4730    15.6580 oh         1 TVX      -0.539100
     33 O3          44.8630    -5.9760    21.4510 os         1 TVX      -0.361100
     34 H1          41.8370    -0.2460    15.1150 ha         1 TVX       0.128000
     35 H2          41.5360    -2.9320    14.0560 hc         1 TVX       0.059700
     36 H3          40.7760    -2.5510    15.5830 hc         1 TVX       0.059700
     37 H4          40.1060    -5.7320    11.2180 ha         1 TVX       0.116000
     38 H5          41.3750    -9.6830    12.4000 ha         1 TVX       0.116000
     39 H6          45.9240    -7.1920    19.2490 ha         1 TVX       0.122500
     40 H7          45.6500    -6.4010    16.9390 ha         1 TVX       0.125500
     41 H8          44.5280    -7.1130    23.7150 h1         1 TVX       0.043200
     42 H9          45.7620    -8.3590    23.5990 h1         1 TVX       0.043200
     43 H10         47.2740    -6.2700    26.1650 h1         1 TVX       0.033200
     44 H11         45.5300    -6.6130    26.0720 h1         1 TVX       0.033200
     45 H12         46.7140    -7.9020    25.7480 h1         1 TVX       0.033200
     46 H13         39.6640    -4.8790    15.2740 hc         1 TVX       0.082450
     47 H14         40.6870    -6.3850    15.4160 hc         1 TVX       0.082450
     48 H15         46.1550    -2.2920    16.5230 ha         1 TVX       0.121000
     49 H16         41.7700    -4.7320    12.7550 ha         1 TVX       0.121500
     50 H17         39.8980    -8.2090    11.0350 ha         1 TVX       0.114000
     51 H18         43.0290    -8.6910    13.9640 ha         1 TVX       0.121500
     52 H19         43.2590    -3.0790    18.3520 ha         1 TVX       0.125500
     53 H20         43.5420    -3.8760    20.6760 ha         1 TVX       0.122500
     54 H21         45.9390     0.1720    16.3790 ha         1 TVX       0.117000
     55 H22         45.1800    -8.0390    21.3840 h1         1 TVX       0.045700
     56 H23         46.6640    -7.0680    21.5210 h1         1 TVX       0.045700
     57 H24         47.0610    -4.4480    24.6050 h1         1 TVX       0.033200
     58 H25         46.5430    -4.7270    22.9370 h1         1 TVX       0.033200
     59 H26         45.3340    -4.6850    24.2460 h1         1 TVX       0.033200
     60 H27         40.6500    -4.0600    17.4400 hc         1 TVX       0.082450
     61 H28         41.6900    -5.5610    17.5180 hc         1 TVX       0.082450
     62 H29         45.2320    -4.4310    15.5080 h1         1 TVX       0.095700
     63 H31         44.6030     1.8770    15.9110 ho         1 TVX       0.463000
@<TRIPOS>BOND
     1     1     6 1   
     2     1     7 1   
     3     1    29 1   
     4     2     3 ar  
     5     2    28 ar  
     6     2    34 1   
     7     3     4 ar  
     8     3     5 1   
     9     4    17 ar  
    10     4    29 1   
    11     5     6 1   
    12     5    35 1   
    13     5    36 1   
    14     6    16 1   
    15     6    27 1   
    16     7    18 1   
    17     7    31 2   
    18     8    19 ar  
    19     8    20 ar  
    20     8    37 1   
    21     9    20 ar  
    22     9    21 ar  
    23     9    38 1   
    24    10    13 ar  
    25    10    22 ar  
    26    10    29 1   
    27    11    12 ar  
    28    11    23 ar  
    29    11    33 1   
    30    12    13 ar  
    31    12    39 1   
    32    13    40 1   
    33    14    25 1   
    34    14    30 1   
    35    14    41 1   
    36    14    42 1   
    37    15    30 1   
    38    15    43 1   
    39    15    44 1   
    40    15    45 1   
    41    16    27 1   
    42    16    46 1   
    43    16    47 1   
    44    17    24 ar  
    45    17    48 1   
    46    18    19 ar  
    47    18    21 ar  
    48    19    49 1   
    49    20    50 1   
    50    21    51 1   
    51    22    23 ar  
    52    22    52 1   
    53    23    53 1   
    54    24    28 ar  
    55    24    54 1   
    56    25    33 1   
    57    25    55 1   
    58    25    56 1   
    59    26    30 1   
    60    26    57 1   
    61    26    58 1   
    62    26    59 1   
    63    27    60 1   
    64    27    61 1   
    65    28    32 1   
    66    29    62 1   
    67    32    63 1   
@<TRIPOS>SUBSTRUCTURE
     1 TVX         1 TEMP              0 ****  ****    0 ROOT
