@<TRIPOS>MOLECULE
TVX
   63    67     1     0     0
SMALL
abcg2


@<TRIPOS>ATOM
      1 N1          43.2550    -4.9600    15.3740 n          1 TVX      -0.374800
      2 C4          42.6700    -0.8070    15.3410 ca         1 TVX      -0.147000
      3 C5          42.8350    -2.1860    15.4700 ca         1 TVX      -0.029300
      4 C6          44.0750    -2.7000    15.8570 ca         1 TVX      -0.122300
      5 C7          41.6780    -3.1030    15.1540 c6         1 TVX      -0.012100
      6 C8          41.9140    -4.5040    15.6680 cx         1 TVX       0.050400
      7 C10         43.6180    -5.9210    14.4880 c          1 TVX       0.619700
      8 C13         40.9530    -6.3250    11.8170 ca         1 TVX      -0.117500
      9 C15         41.4920    -8.4910    12.7230 ca         1 TVX      -0.117500
     10 C17         44.4700    -4.5970    17.5080 ca         1 TVX      -0.137300
     11 C20         44.7060    -5.4790    20.1660 ca         1 TVX       0.146100
     12 C21         45.1290    -6.2970    19.1160 ca         1 TVX      -0.177500
     13 C22         45.0080    -5.8460    17.8050 ca         1 TVX      -0.057500
     14 C24         45.3470    -7.2370    23.3430 c3         1 TVX       0.163800
     15 C26         46.5660    -7.0540    25.3960 c3         1 TVX       0.149600
     16 C28         40.7620    -5.4550    15.7560 cx         1 TVX      -0.119400
     17 C1          45.1270    -1.8160    16.0960 ca         1 TVX      -0.057000
     18 C11         42.5780    -6.5180    13.5900 ca         1 TVX      -0.131600
     19 C12         41.8520    -5.7330    12.6960 ca         1 TVX      -0.076500
     20 C14         40.7630    -7.7030    11.8350 ca         1 TVX      -0.096000
     21 C16         42.4070    -7.9020    13.5870 ca         1 TVX      -0.076500
     22 C18         44.0600    -3.7900    18.5680 ca         1 TVX      -0.057500
     23 C19         44.1730    -4.2190    19.8810 ca         1 TVX      -0.177500
     24 C2          44.9680    -0.4460    15.9680 ca         1 TVX      -0.198000
     25 C23         45.3360    -7.0870    21.8350 c3         1 TVX       0.161600
     26 C25         46.4100    -5.1350    23.9700 c3         1 TVX       0.149600
     27 C27         41.3280    -4.8640    17.0150 cx         1 TVX      -0.119400
     28 C3          43.7230     0.0610    15.5910 ca         1 TVX       0.138100
     29 C9          44.3140    -4.1830    16.0500 c6         1 TVX       0.215300
     30 N2          46.4710    -6.5920    24.0170 n3         1 TVX      -0.719600
     31 O1          44.7850    -6.3160    14.3860 o          1 TVX      -0.607100
     32 O2          43.4920     1.4020    15.4550 oh         1 TVX      -0.539100
     33 O3          44.7750    -5.8160    21.4810 os         1 TVX      -0.361100
     34 H1          41.7100    -0.4010    15.0440 ha         1 TVX       0.128000
     35 H2          41.5340    -3.1270    14.0690 hc         1 TVX       0.059700
     36 H3          40.7570    -2.7020    15.5790 hc         1 TVX       0.059700
     37 H4          40.3990    -5.7080    11.1200 ha         1 TVX       0.116000
     38 H5          41.3500    -9.5640    12.7380 ha         1 TVX       0.116000
     39 H6          45.5500    -7.2730    19.3050 ha         1 TVX       0.122500
     40 H7          45.3310    -6.4900    16.9960 ha         1 TVX       0.125500
     41 H8          44.3770    -6.8910    23.7430 h1         1 TVX       0.043200
     42 H9          45.4140    -8.3060    23.5520 h1         1 TVX       0.043200
     43 H10         47.4400    -6.6070    25.8720 h1         1 TVX       0.033200
     44 H11         45.6780    -6.7850    25.9940 h1         1 TVX       0.033200
     45 H12         46.6740    -8.1390    25.4190 h1         1 TVX       0.033200
     46 H13         39.8150    -5.0930    15.3780 hc         1 TVX       0.082450
     47 H14         40.9440    -6.5030    15.5800 hc         1 TVX       0.082450
     48 H15         46.0910    -2.2110    16.3960 ha         1 TVX       0.121000
     49 H16         41.9960    -4.6620    12.6780 ha         1 TVX       0.121500
     50 H17         40.0540    -8.1630    11.1580 ha         1 TVX       0.114000
     51 H18         42.9800    -8.5120    14.2730 ha         1 TVX       0.121500
     52 H19         43.6380    -2.8140    18.3690 ha         1 TVX       0.125500
     53 H20         43.8490    -3.5900    20.7000 ha         1 TVX       0.122500
     54 H21         45.7950     0.2290    16.1560 ha         1 TVX       0.117000
     55 H22         44.7230    -7.8790    21.3950 h1         1 TVX       0.045700
     56 H23         46.3520    -7.1700    21.4390 h1         1 TVX       0.045700
     57 H24         47.2760    -4.7240    24.4900 h1         1 TVX       0.033200
     58 H25         46.4230    -4.7860    22.9410 h1         1 TVX       0.033200
     59 H26         45.4990    -4.7420    24.4540 h1         1 TVX       0.033200
     60 H27         40.7800    -4.0900    17.5360 hc         1 TVX       0.082450
     61 H28         41.9030    -5.5240    17.6470 hc         1 TVX       0.082450
     62 H29         45.2340    -4.4500    15.5360 h1         1 TVX       0.095700
     63 H31         44.2970     1.8960    15.6600 ho         1 TVX       0.463000
@<TRIPOS>BOND
     1     1     6 1   
     2     1     7 1   
     3     1    29 1   
     4     2     3 ar  
     5     2    28 ar  
     6     2    34 1   
     7     3     4 ar  
     8     3     5 1   
     9     4    17 ar  
    10     4    29 1   
    11     5     6 1   
    12     5    35 1   
    13     5    36 1   
    14     6    16 1   
    15     6    27 1   
    16     7    18 1   
    17     7    31 2   
    18     8    19 ar  
    19     8    20 ar  
    20     8    37 1   
    21     9    20 ar  
    22     9    21 ar  
    23     9    38 1   
    24    10    13 ar  
    25    10    22 ar  
    26    10    29 1   
    27    11    12 ar  
    28    11    23 ar  
    29    11    33 1   
    30    12    13 ar  
    31    12    39 1   
    32    13    40 1   
    33    14    25 1   
    34    14    30 1   
    35    14    41 1   
    36    14    42 1   
    37    15    30 1   
    38    15    43 1   
    39    15    44 1   
    40    15    45 1   
    41    16    27 1   
    42    16    46 1   
    43    16    47 1   
    44    17    24 ar  
    45    17    48 1   
    46    18    19 ar  
    47    18    21 ar  
    48    19    49 1   
    49    20    50 1   
    50    21    51 1   
    51    22    23 ar  
    52    22    52 1   
    53    23    53 1   
    54    24    28 ar  
    55    24    54 1   
    56    25    33 1   
    57    25    55 1   
    58    25    56 1   
    59    26    30 1   
    60    26    57 1   
    61    26    58 1   
    62    26    59 1   
    63    27    60 1   
    64    27    61 1   
    65    28    32 1   
    66    29    62 1   
    67    32    63 1   
@<TRIPOS>SUBSTRUCTURE
     1 TVX         1 TEMP              0 ****  ****    0 ROOT
