@<TRIPOS>MOLECULE
TVY
   42    43     1     0     0
SMALL
abcg2


@<TRIPOS>ATOM
      1 C7          16.2410    20.9120    15.7500 ca         1 TVY      -0.117500
      2 C8          15.6130    20.0920    14.8210 ca         1 TVY      -0.085500
      3 C9          15.4160    18.7400    15.0820 ca         1 TVY      -0.105300
      4 C10         15.8520    18.2210    16.2990 ca         1 TVY      -0.085500
      5 C11         16.4770    19.0380    17.2300 ca         1 TVY      -0.117500
      6 C12         16.6760    20.3860    16.9590 ca         1 TVY      -0.108000
      7 C13         14.7800    17.8510    14.0420 c3         1 TVY       0.223600
      8 C15         15.8260    17.1170    13.2030 c3         1 TVY       0.152800
      9 N17         16.6430    18.0590    12.4630 n8         1 TVY      -0.994200
     10 O1          13.9760    16.8420    14.6240 os         1 TVY      -0.484000
     11 C1          12.7890    17.2730    15.2190 c6         1 TVY       0.393300
     12 O5          11.8900    17.7800    14.2800 os         1 TVY      -0.446000
     13 C5          11.1000    16.8030    13.6360 c6         1 TVY       0.168300
     14 C4          10.0970    16.2140    14.6360 c6         1 TVY       0.138300
     15 C2          12.2100    16.0780    15.9790 c6         1 TVY       0.107300
     16 C3          10.6930    16.1960    16.0540 c6         1 TVY       0.117300
     17 C6          10.3980    17.4560    12.4690 c3         1 TVY       0.169600
     18 O6          11.3500    17.8310    11.5040 oh         1 TVY      -0.712000
     19 O2          12.8090    16.0670    17.2540 oh         1 TVY      -0.712000
     20 O3          10.3020    17.3740    16.7200 oh         1 TVY      -0.647000
     21 O4           9.7870    14.9210    14.1750 oh         1 TVY      -0.716000
     22 H11         16.3870    21.9620    15.5300 ha         1 TVY       0.108500
     23 H12         15.2700    20.5110    13.8820 ha         1 TVY       0.116000
     24 H13         15.6910    17.1740    16.5270 ha         1 TVY       0.116000
     25 H14         16.8100    18.6210    18.1730 ha         1 TVY       0.108500
     26 H15         17.1620    21.0220    17.6880 ha         1 TVY       0.108000
     27 H6          14.1760    18.4690    13.3640 h1         1 TVY       0.060700
     28 H7          15.2980    16.3910    12.5690 h1         1 TVY       0.041700
     29 H8          16.4750    16.5420    13.8710 h1         1 TVY       0.041700
     30 H9          17.3840    17.5570    11.9920 hn         1 TVY       0.394000
     31 H10         16.0900    18.4840    11.7290 hn         1 TVY       0.394000
     32 H1          12.9760    18.0990    15.9170 h2         1 TVY       0.095700
     33 H5          11.7280    15.9830    13.2570 h1         1 TVY       0.073700
     34 H4           9.1990    16.8480    14.6680 h1         1 TVY       0.062700
     35 H2          12.4490    15.1570    15.4270 h1         1 TVY       0.067700
     36 H3          10.2980    15.3100    16.5750 h1         1 TVY       0.031700
     37 H61          9.8280    18.3200    12.8390 h1         1 TVY       0.031200
     38 H62          9.6690    16.7400    12.0680 h1         1 TVY       0.031200
     39 HO2         12.6630    15.2040    17.6520 ho         1 TVY       0.508000
     40 HO3         10.7490    17.3900    17.5730 ho         1 TVY       0.459000
     41 HO4          9.0260    14.5960    14.6660 ho         1 TVY       0.508000
     42 HO6         10.8870    18.2750    10.7880 ho         1 TVY       0.504000
@<TRIPOS>BOND
     1     1     2 ar  
     2     1     6 ar  
     3     1    22 1   
     4     2     3 ar  
     5     2    23 1   
     6     3     4 ar  
     7     3     7 1   
     8     4     5 ar  
     9     4    24 1   
    10     5     6 ar  
    11     5    25 1   
    12     6    26 1   
    13     7     8 1   
    14     7    10 1   
    15     7    27 1   
    16     8     9 1   
    17     8    28 1   
    18     8    29 1   
    19     9    30 1   
    20     9    31 1   
    21    10    11 1   
    22    11    12 1   
    23    11    15 1   
    24    11    32 1   
    25    12    13 1   
    26    13    14 1   
    27    13    17 1   
    28    13    33 1   
    29    14    16 1   
    30    14    21 1   
    31    14    34 1   
    32    15    16 1   
    33    15    19 1   
    34    15    35 1   
    35    16    20 1   
    36    16    36 1   
    37    17    18 1   
    38    17    37 1   
    39    17    38 1   
    40    18    42 1   
    41    19    39 1   
    42    20    40 1   
    43    21    41 1   
@<TRIPOS>SUBSTRUCTURE
     1 TVY         1 TEMP              0 ****  ****    0 ROOT
