@<TRIPOS>MOLECULE
TVY
   42    43     1     0     0
SMALL
No Charge or Current Charge


@<TRIPOS>ATOM
      1 C7          15.5470    20.9240    15.9440 ca         1 TVY      -0.117500
      2 C8          15.0930    20.0180    14.9690 ca         1 TVY      -0.085500
      3 C9          15.4390    18.6530    15.0470 ca         1 TVY      -0.105300
      4 C10         16.2380    18.2070    16.1220 ca         1 TVY      -0.085500
      5 C11         16.6910    19.1130    17.0960 ca         1 TVY      -0.117500
      6 C12         16.3470    20.4720    17.0070 ca         1 TVY      -0.108000
      7 C13         14.9170    17.6690    13.9920 c3         1 TVY       0.223600
      8 C15         16.0450    16.8790    13.2560 c3         1 TVY       0.152800
      9 N17         16.9780    17.7260    12.4590 n8         1 TVY      -0.994200
     10 O1          14.0630    16.7000    14.6340 os         1 TVY      -0.484000
     11 C1          12.8560    17.2010    15.2430 c6         1 TVY       0.393300
     12 O5          12.0080    17.7930    14.2270 os         1 TVY      -0.446000
     13 C5          11.0620    16.8810    13.6250 c6         1 TVY       0.168300
     14 C4           9.9830    16.4570    14.6840 c6         1 TVY       0.138300
     15 C2          12.1350    16.0370    16.0260 c6         1 TVY       0.107300
     16 C3          10.6040    16.2900    16.1220 c6         1 TVY       0.117300
     17 C6          10.4260    17.5610    12.3690 c3         1 TVY       0.169600
     18 O6          11.3980    17.9900    11.3930 oh         1 TVY      -0.712000
     19 O2          12.7310    15.7860    17.3230 oh         1 TVY      -0.712000
     20 O3          10.3640    17.4450    16.9450 oh         1 TVY      -0.647000
     21 O4           9.3400    15.2390    14.2510 oh         1 TVY      -0.716000
     22 H11         15.2770    21.9750    15.8760 ha         1 TVY       0.108500
     23 H12         14.4700    20.3780    14.1540 ha         1 TVY       0.116000
     24 H13         16.5030    17.1550    16.2060 ha         1 TVY       0.116000
     25 H14         17.3070    18.7620    17.9200 ha         1 TVY       0.108500
     26 H15         16.6980    21.1740    17.7610 ha         1 TVY       0.108000
     27 H6          14.3500    18.2220    13.2310 h1         1 TVY       0.060700
     28 H7          15.5770    16.1540    12.5750 h1         1 TVY       0.041700
     29 H8          16.6320    16.3140    13.9920 h1         1 TVY       0.041700
     30 H9          17.6420    17.1180    11.9640 hn         1 TVY       0.394000
     31 H10         16.4560    18.1800    11.6990 hn         1 TVY       0.394000
     32 H1          13.1150    17.9870    15.9700 h2         1 TVY       0.095700
     33 H5          11.6070    15.9910    13.2780 h1         1 TVY       0.073700
     34 H4           9.2330    17.2620    14.7380 h1         1 TVY       0.062700
     35 H2          12.2550    15.1290    15.4140 h1         1 TVY       0.067700
     36 H3          10.1450    15.4130    16.6020 h1         1 TVY       0.031700
     37 H61          9.8330    18.4210    12.7090 h1         1 TVY       0.031200
     38 H62          9.7280    16.8470    11.9110 h1         1 TVY       0.031200
     39 HO2         13.6670    15.5200    17.1610 ho         1 TVY       0.508000
     40 HO3         10.9220    17.3120    17.7450 ho         1 TVY       0.459000
     41 HO4          8.5580    15.1000    14.8360 ho         1 TVY       0.508000
     42 HO6         10.9030    18.4520    10.6780 ho         1 TVY       0.504000
@<TRIPOS>BOND
     1     1     2 ar  
     2     1     6 ar  
     3     1    22 1   
     4     2     3 ar  
     5     2    23 1   
     6     3     4 ar  
     7     3     7 1   
     8     4     5 ar  
     9     4    24 1   
    10     5     6 ar  
    11     5    25 1   
    12     6    26 1   
    13     7     8 1   
    14     7    10 1   
    15     7    27 1   
    16     8     9 1   
    17     8    28 1   
    18     8    29 1   
    19     9    30 1   
    20     9    31 1   
    21    10    11 1   
    22    11    12 1   
    23    11    15 1   
    24    11    32 1   
    25    12    13 1   
    26    13    14 1   
    27    13    17 1   
    28    13    33 1   
    29    14    16 1   
    30    14    21 1   
    31    14    34 1   
    32    15    16 1   
    33    15    19 1   
    34    15    35 1   
    35    16    20 1   
    36    16    36 1   
    37    17    18 1   
    38    17    37 1   
    39    17    38 1   
    40    18    42 1   
    41    19    39 1   
    42    20    40 1   
    43    21    41 1   
@<TRIPOS>SUBSTRUCTURE
     1 TVY         1 TEMP              0 ****  ****    0 ROOT
