@<TRIPOS>MOLECULE
TVZ
   28    29     1     0     0
SMALL
bcc


@<TRIPOS>ATOM
      1 N            5.1770    -1.6820     0.0360 nt         1 TVZ      -0.675000
      2 O           -5.4040    -0.8250     0.3500 o          1 TVZ      -0.823800
      3 C1          -3.1950    -0.0170     0.1650 ca         1 TVZ      -0.140600
      4 C10          1.0390    -0.8050    -0.4810 ca         1 TVZ      -0.141500
      5 C11         -1.3420     2.0200    -0.3040 ca         1 TVZ      -0.134000
      6 C12         -2.7010     2.2930    -0.3270 ca         1 TVZ      -0.169000
      7 C13         -3.6230     1.2820    -0.0960 ca         1 TVZ      -0.089000
      8 C2          -1.8290    -0.2770     0.1880 ca         1 TVZ      -0.082000
      9 C3          -0.8880     0.7250    -0.0460 cp         1 TVZ      -0.101000
     10 C4           0.5570     0.4230    -0.0260 cp         1 TVZ       0.036000
     11 C5           1.4840     1.3590     0.4400 ca         1 TVZ      -0.141500
     12 C6           2.8390     1.0800     0.4440 ca         1 TVZ      -0.093500
     13 C7           3.3120    -0.1540     0.0050 ca         1 TVZ      -0.181600
     14 C8           4.7870    -0.3980     0.0210 c          1 TVZ       0.688700
     15 C9           2.3940    -1.0920    -0.4630 ca         1 TVZ      -0.093500
     16 O1           5.5790     0.5340     0.0140 o          1 TVZ      -0.624100
     17 O2          -3.7320    -2.2590     0.6830 o          1 TVZ      -0.823800
     18 H3           4.5370    -2.4400     0.1970 hn         1 TVZ       0.308000
     19 H4           6.1590    -1.9010     0.0670 hn         1 TVZ       0.308000
     20 H6           0.3540    -1.5420    -0.8800 ha         1 TVZ       0.142000
     21 H7          -0.6350     2.8140    -0.5080 ha         1 TVZ       0.106000
     22 H8          -3.0400     3.3000    -0.5360 ha         1 TVZ       0.107000
     23 H9          -4.6830     1.4990    -0.1200 ha         1 TVZ       0.147000
     24 H           -1.4980    -1.2830     0.4130 ha         1 TVZ       0.148000
     25 H1           1.1450     2.3130     0.8210 ha         1 TVZ       0.142000
     26 H2           3.5340     1.8240     0.8090 ha         1 TVZ       0.129000
     27 H5           2.7210    -2.0480    -0.8520 ha         1 TVZ       0.129000
     28 C           -4.2000    -1.1340     0.4230 c          1 TVZ       0.924200
@<TRIPOS>BOND
     1     1    14 1   
     2     1    18 1   
     3     1    19 1   
     4     2    28 1   
     5     3     7 ar  
     6     3     8 ar  
     7     3    28 1   
     8     4    10 ar  
     9     4    15 ar  
    10     4    20 1   
    11     5     6 ar  
    12     5     9 ar  
    13     5    21 1   
    14     6     7 ar  
    15     6    22 1   
    16     7    23 1   
    17     8     9 ar  
    18     8    24 1   
    19     9    10 1   
    20    10    11 ar  
    21    11    12 ar  
    22    11    25 1   
    23    12    13 ar  
    24    12    26 1   
    25    13    14 1   
    26    13    15 ar  
    27    14    16 2   
    28    15    27 1   
    29    17    28 1   
@<TRIPOS>SUBSTRUCTURE
     1 TVZ         1 TEMP              0 ****  ****    0 ROOT
