@<TRIPOS>MOLECULE
TVZ
   28    29     1     0     0
SMALL
No Charge or Current Charge


@<TRIPOS>ATOM
      1 N            5.2920    -1.6550    -0.2080 nt         1 TVZ      -0.608000
      2 O           -5.4690    -0.8170     0.4510 o          1 TVZ      -0.718500
      3 C1          -3.2630    -0.0100     0.1810 ca         1 TVZ      -0.140600
      4 C10          1.0640    -0.8450    -0.3950 ca         1 TVZ      -0.123500
      5 C11         -1.3720     2.0150    -0.3890 ca         1 TVZ      -0.116000
      6 C12         -2.7450     2.2980    -0.4410 ca         1 TVZ      -0.151000
      7 C13         -3.6860     1.2960    -0.1590 ca         1 TVZ      -0.071000
      8 C2          -1.8750    -0.2800     0.2290 ca         1 TVZ      -0.064000
      9 C3          -0.9080     0.7200    -0.0530 cp         1 TVZ      -0.101000
     10 C4           0.5590     0.4160     0.0020 cp         1 TVZ       0.036000
     11 C5           1.4910     1.3800     0.4540 ca         1 TVZ      -0.123500
     12 C6           2.8660     1.0980     0.5080 ca         1 TVZ      -0.075500
     13 C7           3.3620    -0.1630     0.1100 ca         1 TVZ      -0.181600
     14 C8           4.8490    -0.4400     0.1780 c          1 TVZ       0.621700
     15 C9           2.4390    -1.1340    -0.3450 ca         1 TVZ      -0.075500
     16 O1           5.6590     0.3870     0.5650 o          1 TVZ      -0.624100
     17 O2          -3.8720    -2.2170     0.7710 o          1 TVZ      -0.718500
     18 H3           4.6400    -2.3530    -0.5310 hn         1 TVZ       0.308000
     19 H4           6.2800    -1.8530    -0.1680 hn         1 TVZ       0.308000
     20 H6           0.3820    -1.6090    -0.7620 ha         1 TVZ       0.124000
     21 H7          -0.6630     2.8050    -0.6240 ha         1 TVZ       0.088000
     22 H8          -3.0820     3.2980    -0.7040 ha         1 TVZ       0.089000
     23 H9          -4.7450     1.5380    -0.2060 ha         1 TVZ       0.129000
     24 H           -1.5370    -1.2760     0.5040 ha         1 TVZ       0.130000
     25 H1           1.1430     2.3570     0.7800 ha         1 TVZ       0.124000
     26 H2           3.5480     1.8670     0.8650 ha         1 TVZ       0.111000
     27 H5           2.7700    -2.1180    -0.6660 ha         1 TVZ       0.111000
     28 C           -4.2790    -1.0980     0.4920 c          1 TVZ       0.713600
@<TRIPOS>BOND
     1     1    14 1   
     2     1    18 1   
     3     1    19 1   
     4     2    28 1   
     5     3     7 ar  
     6     3     8 ar  
     7     3    28 1   
     8     4    10 ar  
     9     4    15 ar  
    10     4    20 1   
    11     5     6 ar  
    12     5     9 ar  
    13     5    21 1   
    14     6     7 ar  
    15     6    22 1   
    16     7    23 1   
    17     8     9 ar  
    18     8    24 1   
    19     9    10 1   
    20    10    11 ar  
    21    11    12 ar  
    22    11    25 1   
    23    12    13 ar  
    24    12    26 1   
    25    13    14 1   
    26    13    15 ar  
    27    14    16 2   
    28    15    27 1   
    29    17    28 1   
@<TRIPOS>SUBSTRUCTURE
     1 TVZ         1 TEMP              0 ****  ****    0 ROOT
