@<TRIPOS>MOLECULE
TW0
   33    35     1     0     0
SMALL
No Charge or Current Charge


@<TRIPOS>ATOM
      1 CAA         -6.4470     1.5040     7.3780 c6         1 TW0      -0.129400
      2 CAB         -5.6060     2.5110     6.5440 c6         1 TW0       0.092300
      3 CAC         -4.2990     1.8410     6.0220 c6         1 TW0       0.119300
      4 CAD         -3.5300     1.1880     7.2120 c6         1 TW0       0.117800
      5 CAF         -5.6080     0.8950     8.5250 c6         1 TW0       0.149800
      6 CAK         -7.5880     3.3520     3.6790 cc         1 TW0       0.144000
      7 CAL         -6.9030     2.3850     4.3470 cd         1 TW0      -0.194000
      8 CAM         -8.2890     3.0690     2.4150 ca         1 TW0       0.337000
      9 CAO        -10.1970     3.2820     1.0950 ca         1 TW0       0.339900
     10 CAP         -9.6190     2.5440     0.0490 ca         1 TW0      -0.167000
     11 CAQ         -8.3150     2.0510     0.2030 ca         1 TW0      -0.073000
     12 CAR         -7.6440     2.3210     1.4060 ca         1 TW0      -0.162000
     13 NAE         -4.3850     0.2500     7.9910 n7         1 TW0      -0.841400
     14 NAH         -6.4180     3.0740     5.4390 na         1 TW0       0.125800
     15 NAI         -6.8220     4.3900     5.4110 nd         1 TW0      -0.193800
     16 NAJ         -7.5380     4.5560     4.3240 nc         1 TW0      -0.310000
     17 NAN         -9.5530     3.5430     2.2550 nb         1 TW0      -0.635000
     18 OAG         -3.4610     2.8000     5.3540 oh         1 TW0      -0.642000
     19 H1          -7.3280     2.0080     7.7970 hc         1 TW0       0.060700
     20 H2          -6.8250     0.6980     6.7340 hc         1 TW0       0.060700
     21 H3          -5.3170     3.3430     7.2030 h1         1 TW0       0.109700
     22 H4          -4.5770     1.0420     5.3190 h1         1 TW0       0.031700
     23 H5          -2.6510     0.6470     6.8270 h1         1 TW0       0.067200
     24 H6          -3.1570     1.9800     7.8790 h1         1 TW0       0.067200
     25 H7          -5.3300     1.6860     9.2380 h1         1 TW0       0.064700
     26 H8          -6.2120     0.1560     9.0740 h1         1 TW0       0.064700
     27 H9          -6.7340     1.3350     4.1480 h4         1 TW0       0.159000
     28 H10        -11.2090     3.6770     1.0010 h4         1 TW0       0.022100
     29 H11        -10.1790     2.3610    -0.8630 ha         1 TW0       0.123000
     30 H12         -7.8360     1.4760    -0.5880 ha         1 TW0       0.117000
     31 H13         -6.6310     1.9590     1.5580 ha         1 TW0       0.115000
     32 H14         -4.6660    -0.5300     7.3810 hn         1 TW0       0.407000
     33 H16         -2.7550     2.2970     4.8910 ho         1 TW0       0.449000
@<TRIPOS>BOND
     1     1     2 1   
     2     1     5 1   
     3     1    19 1   
     4     1    20 1   
     5     2     3 1   
     6     2    14 1   
     7     2    21 1   
     8     3     4 1   
     9     3    18 1   
    10     3    22 1   
    11     4    13 1   
    12     4    23 1   
    13     4    24 1   
    14     5    13 1   
    15     5    25 1   
    16     5    26 1   
    17     6     7 2   
    18     6     8 1   
    19     6    16 1   
    20     7    14 1   
    21     7    27 1   
    22     8    12 ar  
    23     8    17 ar  
    24     9    10 ar  
    25     9    17 ar  
    26     9    28 1   
    27    10    11 ar  
    28    10    29 1   
    29    11    12 ar  
    30    11    30 1   
    31    12    31 1   
    32    13    32 1   
    33    14    15 1   
    34    15    16 2   
    35    18    33 1   
@<TRIPOS>SUBSTRUCTURE
     1 TW0         1 TEMP              0 ****  ****    0 ROOT
