@<TRIPOS>MOLECULE
TW0
   33    35     1     0     0
SMALL
abcg2


@<TRIPOS>ATOM
      1 CAA         -6.3740     1.2860     7.3050 c6         1 TW0      -0.129400
      2 CAB         -5.6630     2.4220     6.5660 c6         1 TW0       0.092300
      3 CAC         -4.2820     1.9820     6.0940 c6         1 TW0       0.119300
      4 CAD         -3.4830     1.4350     7.2850 c6         1 TW0       0.117800
      5 CAF         -5.4960     0.7570     8.4410 c6         1 TW0       0.149800
      6 CAK         -7.6130     3.1830     3.6330 cc         1 TW0       0.144000
      7 CAL         -6.8840     2.2560     4.3540 cd         1 TW0      -0.194000
      8 CAM         -8.3040     3.0140     2.3500 ca         1 TW0       0.337000
      9 CAO         -9.7700     3.8510     0.7940 ca         1 TW0       0.339900
     10 CAP         -9.6270     2.7440    -0.0320 ca         1 TW0      -0.167000
     11 CAQ         -8.7680     1.7300     0.3760 ca         1 TW0      -0.073000
     12 CAR         -8.0950     1.8660     1.5790 ca         1 TW0      -0.162000
     13 NAE         -4.1570     0.3580     8.0040 n7         1 TW0      -0.841400
     14 NAH         -6.4710     2.9160     5.4500 na         1 TW0       0.125800
     15 NAI         -6.9090     4.1850     5.4300 nd         1 TW0      -0.193800
     16 NAJ         -7.6010     4.3510     4.3380 nc         1 TW0      -0.310000
     17 NAN         -9.1320     3.9930     1.9570 nb         1 TW0      -0.635000
     18 OAG         -3.6410     3.1130     5.5090 oh         1 TW0      -0.642000
     19 H1          -7.3290     1.6490     7.6920 hc         1 TW0       0.060700
     20 H2          -6.5850     0.4740     6.6040 hc         1 TW0       0.060700
     21 H3          -5.5460     3.2820     7.2280 h1         1 TW0       0.109700
     22 H4          -4.3970     1.1870     5.3480 h1         1 TW0       0.031700
     23 H5          -2.5140     1.0820     6.9280 h1         1 TW0       0.067200
     24 H6          -3.3010     2.2610     7.9810 h1         1 TW0       0.067200
     25 H7          -5.3830     1.5330     9.2060 h1         1 TW0       0.064700
     26 H8          -5.9800    -0.0980     8.9150 h1         1 TW0       0.064700
     27 H9          -6.6450     1.2220     4.1770 h4         1 TW0       0.159000
     28 H10        -10.4310     4.6630     0.5100 h4         1 TW0       0.022100
     29 H11        -10.1720     2.6820    -0.9640 ha         1 TW0       0.123000
     30 H12         -8.6210     0.8500    -0.2360 ha         1 TW0       0.117000
     31 H13         -7.4120     1.0970     1.9150 ha         1 TW0       0.115000
     32 H14         -4.2290    -0.4570     7.4020 hn         1 TW0       0.407000
     33 H16         -2.8130     2.8200     5.1080 ho         1 TW0       0.449000
@<TRIPOS>BOND
     1     1     2 1   
     2     1     5 1   
     3     1    19 1   
     4     1    20 1   
     5     2     3 1   
     6     2    14 1   
     7     2    21 1   
     8     3     4 1   
     9     3    18 1   
    10     3    22 1   
    11     4    13 1   
    12     4    23 1   
    13     4    24 1   
    14     5    13 1   
    15     5    25 1   
    16     5    26 1   
    17     6     7 2   
    18     6     8 1   
    19     6    16 1   
    20     7    14 1   
    21     7    27 1   
    22     8    12 ar  
    23     8    17 ar  
    24     9    10 ar  
    25     9    17 ar  
    26     9    28 1   
    27    10    11 ar  
    28    10    29 1   
    29    11    12 ar  
    30    11    30 1   
    31    12    31 1   
    32    13    32 1   
    33    14    15 1   
    34    15    16 2   
    35    18    33 1   
@<TRIPOS>SUBSTRUCTURE
     1 TW0         1 TEMP              0 ****  ****    0 ROOT
