@<TRIPOS>MOLECULE
TW2
   35    37     1     0     0
SMALL
No Charge or Current Charge


@<TRIPOS>ATOM
      1 C1           2.1150    -5.8300    19.0970 c3         1 TW2       0.053900
      2 N1           3.4160    -5.2140    18.7680 na         1 TW2      -0.221400
      3 C2           4.5100    -5.8240    18.1340 cc         1 TW2       0.261900
      4 N2           4.4760    -7.1480    17.7410 nu         1 TW2      -0.830200
      5 C3           5.3730    -7.8260    16.7870 c3         1 TW2       0.287100
      6 N3           7.8700    -5.1350    17.0750 n1         1 TW2      -0.501000
      7 C4           5.3210    -7.2030    15.3890 ca         1 TW2      -0.162300
      8 C5           4.1400    -6.6090    14.8850 ca         1 TW2      -0.074000
      9 N5           4.7710    -1.3680    19.3910 nb         1 TW2      -0.285000
     10 C6           4.1190    -6.0440    13.5980 ca         1 TW2      -0.123000
     11 N6           2.9390    -2.9300    19.6610 nb         1 TW2      -0.231000
     12 C7           5.2700    -6.0730    12.7930 ca         1 TW2      -0.078000
     13 C8           6.4420    -6.6750    13.2770 ca         1 TW2      -0.144000
     14 C9           6.4650    -7.2380    14.5630 ca         1 TW2       0.187000
     15 C10          5.4880    -4.8390    18.0410 cd         1 TW2      -0.126900
     16 C11          6.7870    -5.0250    17.4970 ch         1 TW2       0.335700
     17 C12          4.9590    -3.6170    18.6270 ca         1 TW2      -0.191800
     18 C13          5.4940    -2.3320    18.8010 ca         1 TW2       0.416900
     19 C14          3.5240    -1.7160    19.7930 ca         1 TW2       0.169900
     20 C15          3.6840    -3.8840    19.0650 ca         1 TW2       0.155500
     21 F1           7.6030    -7.8290    14.9960 f          1 TW2      -0.177000
     22 H1           1.4220    -5.0840    19.5040 h1         1 TW2       0.058700
     23 H2           1.6730    -6.2620    18.1900 h1         1 TW2       0.058700
     24 H3           2.2620    -6.6220    19.8420 h1         1 TW2       0.058700
     25 H4           3.6310    -7.6550    18.0060 hn         1 TW2       0.492000
     26 H5           5.0930    -8.8860    16.7040 h1         1 TW2       0.073200
     27 H6           6.4010    -7.8030    17.1720 h1         1 TW2       0.073200
     28 H7           7.1220    -1.0900    18.7470 hn         1 TW2       0.496000
     29 H8           7.4100    -2.6910    18.1460 hn         1 TW2       0.496000
     30 H9           3.2340    -6.5800    15.4860 ha         1 TW2       0.111000
     31 H10          3.2070    -5.5850    13.2230 ha         1 TW2       0.120000
     32 H11          5.2510    -5.6360    11.7970 ha         1 TW2       0.120000
     33 H12          7.3340    -6.7090    12.6570 ha         1 TW2       0.135000
     34 H13          2.9320    -0.9390    20.2730 h5         1 TW2       0.046100
     35 N4           6.7420    -1.9690    18.4020 nv         1 TW2      -1.061900
@<TRIPOS>BOND
     1     1     2 1   
     2     1    22 1   
     3     1    23 1   
     4     1    24 1   
     5     2     3 1   
     6     2    20 1   
     7     3     4 1   
     8     3    15 2   
     9     4     5 1   
    10     4    25 1   
    11     5     7 1   
    12     5    26 1   
    13     5    27 1   
    14     6    16 3   
    15     7     8 ar  
    16     7    14 ar  
    17     8    10 ar  
    18     8    30 1   
    19     9    18 ar  
    20     9    19 ar  
    21    10    12 ar  
    22    10    31 1   
    23    11    19 ar  
    24    11    20 ar  
    25    12    13 ar  
    26    12    32 1   
    27    13    14 ar  
    28    13    33 1   
    29    14    21 1   
    30    15    16 1   
    31    15    17 1   
    32    17    18 ar  
    33    17    20 ar  
    34    18    35 1   
    35    19    34 1   
    36    28    35 1   
    37    29    35 1   
@<TRIPOS>SUBSTRUCTURE
     1 TW2         1 TEMP              0 ****  ****    0 ROOT
