@<TRIPOS>MOLECULE
TW2
   35    37     1     0     0
SMALL
bcc


@<TRIPOS>ATOM
      1 C1           2.1780    -5.8530    19.1340 c3         1 TW2       0.024600
      2 N1           3.4150    -5.1890    18.7890 na         1 TW2      -0.192100
      3 C2           4.4420    -5.7470    18.0830 cc         1 TW2       0.261900
      4 N2           4.3620    -7.0210    17.6690 nu         1 TW2      -0.775000
      5 C3           5.3370    -7.6470    16.8140 c3         1 TW2       0.287100
      6 N3           7.7190    -5.0030    16.7590 n1         1 TW2      -0.411800
      7 C4           5.3240    -7.1430    15.3870 ca         1 TW2      -0.162300
      8 C5           4.2470    -6.4520    14.8440 ca         1 TW2      -0.092000
      9 N5           4.7050    -1.4730    19.5730 nb         1 TW2      -0.811000
     10 C6           4.2630    -6.0160    13.5250 ca         1 TW2      -0.141000
     11 N6           2.9630    -3.0720    19.8100 nb         1 TW2      -0.757000
     12 C7           5.3650    -6.2700    12.7230 ca         1 TW2      -0.096000
     13 C8           6.4540    -6.9610    13.2400 ca         1 TW2      -0.162000
     14 C9           6.4070    -7.3790    14.5530 ca         1 TW2       0.151900
     15 C10          5.4610    -4.8000    17.9420 cd         1 TW2      -0.126900
     16 C11          6.6870    -4.9440    17.2830 ch         1 TW2       0.246500
     17 C12          5.0010    -3.6140    18.6180 ca         1 TW2      -0.322400
     18 C13          5.4770    -2.3200    18.8790 ca         1 TW2       0.745200
     19 C14          3.5170    -1.8840    19.9900 ca         1 TW2       0.695900
     20 C15          3.7390    -3.8980    19.1220 ca         1 TW2       0.483800
     21 F1           7.4630    -8.0470    15.0530 f          1 TW2      -0.141900
     22 H1           1.5470    -5.1440    19.6610 h1         1 TW2       0.058700
     23 H2           1.6510    -6.1850    18.2400 h1         1 TW2       0.058700
     24 H3           2.3610    -6.7070    19.7860 h1         1 TW2       0.058700
     25 H4           3.4840    -7.5020    17.7820 hn         1 TW2       0.436800
     26 H5           5.1220    -8.7160    16.8280 h1         1 TW2       0.073200
     27 H6           6.3300    -7.5400    17.2530 h1         1 TW2       0.073200
     28 H7           6.9950    -0.9830    18.7920 hn         1 TW2       0.440800
     29 H8           7.3650    -2.4960    18.0900 hn         1 TW2       0.440800
     30 H9           3.3790    -6.2500    15.4580 ha         1 TW2       0.129000
     31 H10          3.4120    -5.4790    13.1280 ha         1 TW2       0.138000
     32 H11          5.3850    -5.9320    11.6960 ha         1 TW2       0.138000
     33 H12          7.3250    -7.1710    12.6330 ha         1 TW2       0.153000
     34 H13          2.9330    -1.1600    20.5480 h5         1 TW2       0.046100
     35 N4           6.6660    -1.8660    18.4410 nv         1 TW2      -0.951500
@<TRIPOS>BOND
     1     1     2 1   
     2     1    22 1   
     3     1    23 1   
     4     1    24 1   
     5     2     3 1   
     6     2    20 1   
     7     3     4 1   
     8     3    15 2   
     9     4     5 1   
    10     4    25 1   
    11     5     7 1   
    12     5    26 1   
    13     5    27 1   
    14     6    16 3   
    15     7     8 ar  
    16     7    14 ar  
    17     8    10 ar  
    18     8    30 1   
    19     9    18 ar  
    20     9    19 ar  
    21    10    12 ar  
    22    10    31 1   
    23    11    19 ar  
    24    11    20 ar  
    25    12    13 ar  
    26    12    32 1   
    27    13    14 ar  
    28    13    33 1   
    29    14    21 1   
    30    15    16 1   
    31    15    17 1   
    32    17    18 ar  
    33    17    20 ar  
    34    18    35 1   
    35    19    34 1   
    36    28    35 1   
    37    29    35 1   
@<TRIPOS>SUBSTRUCTURE
     1 TW2         1 TEMP              0 ****  ****    0 ROOT
