@<TRIPOS>MOLECULE
TW5
   73    78     1     0     0
SMALL
No Charge or Current Charge


@<TRIPOS>ATOM
      1 O1           4.1610    -2.8130    -1.0560 o          1 TW5      -0.561100
      2 C1           4.9000    -1.9220    -0.6460 c          1 TW5       0.601100
      3 N1           6.2680    -2.0780    -0.4520 ns         1 TW5      -0.140000
      4 C2           7.1410    -3.1800    -0.6540 ca         1 TW5       0.023000
      5 C3           6.7370    -4.4350    -1.1520 ca         1 TW5      -0.208500
      6 C4           7.6890    -5.4540    -1.3120 ca         1 TW5       0.356900
      7 N2           8.9970    -5.2960    -1.0110 nb         1 TW5      -0.684000
      8 C5           9.3890    -4.0940    -0.5340 ca         1 TW5       0.356900
      9 C6           8.5020    -3.0220    -0.3440 ca         1 TW5      -0.208500
     10 C7           4.3710    -0.5040    -0.2890 c3         1 TW5       0.043700
     11 C8           4.8180     0.5420    -1.3430 c3         1 TW5      -0.010200
     12 C9           4.3570     1.9450    -1.0380 cc         1 TW5      -0.151400
     13 C10          4.8670     2.8140    -0.0160 ca         1 TW5      -0.092800
     14 C11          5.8970     2.6150     0.9150 ca         1 TW5      -0.063000
     15 C12          6.1860     3.6630     1.8150 ca         1 TW5      -0.134000
     16 C13          5.4510     4.8710     1.7640 ca         1 TW5      -0.088000
     17 C14          4.4220     5.0390     0.8120 ca         1 TW5      -0.126000
     18 C15          4.1570     3.9810    -0.0680 ca         1 TW5      -0.047200
     19 N3           3.2060     3.9310    -1.0700 na         1 TW5      -0.220700
     20 C16          3.3400     2.6550    -1.6710 cd         1 TW5      -0.159100
     21 N4           2.8920    -0.5120    -0.1630 ns         1 TW5      -0.489900
     22 C17          2.1740     0.1140     0.8340 c          1 TW5       0.632700
     23 O2           2.7380     0.6410     1.7810 o          1 TW5      -0.589100
     24 C18          0.6720     0.1120     0.6610 ca         1 TW5      -0.243600
     25 C19         -0.1860     0.4520     1.7330 ca         1 TW5       0.275000
     26 F1           0.3000     0.7630     2.9550 f          1 TW5      -0.154000
     27 C20         -1.5760     0.4570     1.5700 ca         1 TW5      -0.248000
     28 C21         -2.1540     0.1310     0.3400 ca         1 TW5       0.379000
     29 C22         -1.3150    -0.2010    -0.7360 ca         1 TW5      -0.220000
     30 C23          0.0810    -0.2130    -0.5830 ca         1 TW5      -0.021000
     31 N5          -3.5580     0.1470     0.2050 nh         1 TW5      -0.799400
     32 C24         -4.4070    -0.7010     1.1030 c6         1 TW5       0.204800
     33 C25         -5.8720    -0.1700     1.2350 c6         1 TW5       0.185300
     34 N6          -6.5230     0.0850    -0.0910 nh         1 TW5      -0.783400
     35 C26         -5.6720     0.9300    -0.9910 c6         1 TW5       0.185300
     36 C27         -4.2070     0.3990    -1.1220 c6         1 TW5       0.204800
     37 C28         -7.9310     0.1040    -0.2300 ca         1 TW5       0.292000
     38 C29         -8.7740     0.4160     0.8580 ca         1 TW5      -0.152000
     39 C30        -10.1730     0.4290     0.6990 ca         1 TW5      -0.073000
     40 C31        -10.7400     0.1270    -0.5490 ca         1 TW5       0.089000
     41 Cl1        -12.4870     0.1420    -0.7480 cl         1 TW5      -0.204000
     42 C32         -9.9120    -0.1870    -1.6380 ca         1 TW5      -0.073000
     43 C33         -8.5140    -0.1980    -1.4760 ca         1 TW5      -0.152000
     44 H1           6.7330    -1.2500    -0.1020 hn         1 TW5       0.155000
     45 H2           5.7080    -4.6470    -1.4200 ha         1 TW5       0.136000
     46 H3           7.3950    -6.4310    -1.6950 h4         1 TW5       0.017100
     47 H4          10.4470    -3.9860    -0.2970 h4         1 TW5       0.017100
     48 H5           8.8800    -2.0800     0.0430 ha         1 TW5       0.136000
     49 H6           4.8130    -0.2370     0.6800 h1         1 TW5       0.073700
     50 H7           5.9120     0.5380    -1.4220 hc         1 TW5       0.062200
     51 H8           4.4420     0.2400    -2.3290 hc         1 TW5       0.062200
     52 H9           6.4570     1.6840     0.9460 ha         1 TW5       0.109000
     53 H10          6.9780     3.5420     2.5500 ha         1 TW5       0.114000
     54 H11          5.6800     5.6750     2.4610 ha         1 TW5       0.113000
     55 H12          3.8520     5.9640     0.7650 ha         1 TW5       0.114000
     56 H13          2.5460     4.6600    -1.3230 hn         1 TW5       0.352000
     57 H14          2.7020     2.3430    -2.4940 h4         1 TW5       0.213000
     58 H15          2.3560    -0.9890    -0.8760 hn         1 TW5       0.326500
     59 H16         -2.2080     0.7270     2.4090 ha         1 TW5       0.134000
     60 H17         -1.7380    -0.4630    -1.7000 ha         1 TW5       0.115000
     61 H18          0.6850    -0.4620    -1.4520 ha         1 TW5       0.115000
     62 H19         -4.4430    -1.7270     0.7080 h1         1 TW5       0.053200
     63 H20         -3.9720    -0.7630     2.1110 h1         1 TW5       0.053200
     64 H21         -6.4520    -0.9080     1.8090 h1         1 TW5       0.050200
     65 H22         -5.8540     0.7600     1.8230 h1         1 TW5       0.050200
     66 H23         -6.1060     0.9910    -1.9990 h1         1 TW5       0.050200
     67 H24         -5.6340     1.9570    -0.5970 h1         1 TW5       0.050200
     68 H25         -3.6260     1.1350    -1.6970 h1         1 TW5       0.053200
     69 H26         -4.2250    -0.5320    -1.7080 h1         1 TW5       0.053200
     70 H27         -8.3530     0.6630     1.8280 ha         1 TW5       0.117500
     71 H28        -10.8150     0.6740     1.5420 ha         1 TW5       0.128000
     72 H29        -10.3520    -0.4240    -2.6030 ha         1 TW5       0.128000
     73 H30         -7.8820    -0.4550    -2.3210 ha         1 TW5       0.117500
@<TRIPOS>BOND
     1     1     2 2   
     2     2     3 1   
     3     2    10 1   
     4     3     4 1   
     5     3    44 1   
     6     4     5 ar  
     7     4     9 ar  
     8     5     6 ar  
     9     5    45 1   
    10     6     7 ar  
    11     6    46 1   
    12     7     8 ar  
    13     8     9 ar  
    14     8    47 1   
    15     9    48 1   
    16    10    11 1   
    17    10    21 1   
    18    10    49 1   
    19    11    12 1   
    20    11    50 1   
    21    11    51 1   
    22    12    13 1   
    23    12    20 2   
    24    13    14 ar  
    25    13    18 ar  
    26    14    15 ar  
    27    14    52 1   
    28    15    16 ar  
    29    15    53 1   
    30    16    17 ar  
    31    16    54 1   
    32    17    18 ar  
    33    17    55 1   
    34    18    19 1   
    35    19    20 1   
    36    19    56 1   
    37    20    57 1   
    38    21    22 1   
    39    21    58 1   
    40    22    23 2   
    41    22    24 1   
    42    24    25 ar  
    43    24    30 ar  
    44    25    26 1   
    45    25    27 ar  
    46    27    28 ar  
    47    27    59 1   
    48    28    29 ar  
    49    28    31 1   
    50    29    30 ar  
    51    29    60 1   
    52    30    61 1   
    53    31    32 1   
    54    31    36 1   
    55    32    33 1   
    56    32    62 1   
    57    32    63 1   
    58    33    34 1   
    59    33    64 1   
    60    33    65 1   
    61    34    35 1   
    62    34    37 1   
    63    35    36 1   
    64    35    66 1   
    65    35    67 1   
    66    36    68 1   
    67    36    69 1   
    68    37    38 ar  
    69    37    43 ar  
    70    38    39 ar  
    71    38    70 1   
    72    39    40 ar  
    73    39    71 1   
    74    40    41 1   
    75    40    42 ar  
    76    42    43 ar  
    77    42    72 1   
    78    43    73 1   
@<TRIPOS>SUBSTRUCTURE
     1 TW5         1 TEMP              0 ****  ****    0 ROOT
