@<TRIPOS>MOLECULE
TW5
   73    78     1     0     0
SMALL
abcg2


@<TRIPOS>ATOM
      1 O1           4.4370    -2.5870    -1.2730 o          1 TW5      -0.561100
      2 C1           4.9320    -1.7300    -0.5740 c          1 TW5       0.601100
      3 N1           6.0560    -1.8940     0.1740 ns         1 TW5      -0.140000
      4 C2           6.8820    -3.0040     0.2800 ca         1 TW5       0.023000
      5 C3           6.7090    -4.2020    -0.4140 ca         1 TW5      -0.208500
      6 C4           7.6280    -5.2180    -0.2030 ca         1 TW5       0.356900
      7 N2           8.6690    -5.1410     0.6170 nb         1 TW5      -0.684000
      8 C5           8.8230    -3.9950     1.2740 ca         1 TW5       0.356900
      9 C6           7.9740    -2.9140     1.1460 ca         1 TW5      -0.208500
     10 C7           4.3700    -0.3100    -0.5180 c3         1 TW5       0.043700
     11 C8           4.9140     0.4920    -1.7140 c3         1 TW5      -0.010200
     12 C9           4.3940     1.8890    -1.7370 cc         1 TW5      -0.151400
     13 C10          4.7210     2.9460    -0.8270 ca         1 TW5      -0.092800
     14 C11          5.6000     3.0550     0.2580 ca         1 TW5      -0.063000
     15 C12          5.6810     4.2560     0.9340 ca         1 TW5      -0.134000
     16 C13          4.9000     5.3590     0.5480 ca         1 TW5      -0.088000
     17 C14          4.0270     5.2820    -0.5200 ca         1 TW5      -0.126000
     18 C15          3.9470     4.0670    -1.2000 ca         1 TW5      -0.047200
     19 N3           3.1930     3.7010    -2.2760 na         1 TW5      -0.220700
     20 C16          3.4600     2.4010    -2.5940 cd         1 TW5      -0.159100
     21 N4           2.9380    -0.3340    -0.5650 ns         1 TW5      -0.489900
     22 C17          2.2140    -0.8830     0.4300 c          1 TW5       0.632700
     23 O2           2.7510    -1.4390     1.3790 o          1 TW5      -0.589100
     24 C18          0.7450    -0.7290     0.3010 ca         1 TW5      -0.243600
     25 C19         -0.1480    -1.6890     0.7630 ca         1 TW5       0.275000
     26 F1           0.3250    -2.8290     1.2810 f          1 TW5      -0.154000
     27 C20         -1.5140    -1.5580     0.6880 ca         1 TW5      -0.248000
     28 C21         -2.0920    -0.3940     0.1470 ca         1 TW5       0.379000
     29 C22         -1.2020     0.5870    -0.3340 ca         1 TW5      -0.220000
     30 C23          0.1630     0.4130    -0.2500 ca         1 TW5      -0.021000
     31 N5          -3.4520    -0.2190     0.1210 nh         1 TW5      -0.799400
     32 C24         -4.3510    -1.3600     0.1220 c6         1 TW5       0.204800
     33 C25         -5.7150    -1.0030     0.6830 c6         1 TW5       0.185300
     34 N6          -6.2870     0.1140    -0.0350 nh         1 TW5      -0.783400
     35 C26         -5.3970     1.2620     0.0070 c6         1 TW5       0.185300
     36 C27         -4.0310     0.9260    -0.5570 c6         1 TW5       0.204800
     37 C28         -7.6530     0.3560     0.1070 ca         1 TW5       0.292000
     38 C29         -8.4590    -0.3820     0.9800 ca         1 TW5      -0.152000
     39 C30         -9.8250    -0.1530     1.0680 ca         1 TW5      -0.073000
     40 C31        -10.4090     0.8340     0.2950 ca         1 TW5       0.089000
     41 CL1        -12.1160     1.1310     0.4080 cl         1 TW5      -0.204000
     42 C32         -9.6330     1.5880    -0.5740 ca         1 TW5      -0.073000
     43 C33         -8.2760     1.3460    -0.6680 ca         1 TW5      -0.152000
     44 H1           6.3270    -1.1100     0.7500 hn         1 TW5       0.155000
     45 H2           5.8940    -4.3590    -1.1000 ha         1 TW5       0.136000
     46 H3           7.5020    -6.1520    -0.7380 h4         1 TW5       0.017100
     47 H4           9.6730    -3.9270     1.9430 h4         1 TW5       0.017100
     48 H5           8.1620    -2.0100     1.7130 ha         1 TW5       0.136000
     49 H6           4.6920     0.1740     0.4100 h1         1 TW5       0.073700
     50 H7           6.0050     0.4840    -1.6630 hc         1 TW5       0.062200
     51 H8           4.6400    -0.0220    -2.6380 hc         1 TW5       0.062200
     52 H9           6.2120     2.2140     0.5620 ha         1 TW5       0.109000
     53 H10          6.3550     4.3540     1.7750 ha         1 TW5       0.114000
     54 H11          4.9860     6.2870     1.0970 ha         1 TW5       0.113000
     55 H12          3.4270     6.1340    -0.8160 ha         1 TW5       0.114000
     56 H13          2.5440     4.2920    -2.7670 hn         1 TW5       0.352000
     57 H14          2.9640     1.9270    -3.4280 h4         1 TW5       0.213000
     58 H15          2.4790    -0.0070    -1.4000 hn         1 TW5       0.326500
     59 H16         -2.1100    -2.3710     1.0750 ha         1 TW5       0.134000
     60 H17         -1.5600     1.5010    -0.7820 ha         1 TW5       0.115000
     61 H18          0.7930     1.2150    -0.6150 ha         1 TW5       0.115000
     62 H19         -4.4660    -1.7500    -0.8970 h1         1 TW5       0.053200
     63 H20         -3.9580    -2.1650     0.7360 h1         1 TW5       0.053200
     64 H21         -6.3470    -1.8830     0.5660 h1         1 TW5       0.050200
     65 H22         -5.6260    -0.7960     1.7600 h1         1 TW5       0.050200
     66 H23         -5.7990     2.0830    -0.5830 h1         1 TW5       0.050200
     67 H24         -5.2840     1.6250     1.0380 h1         1 TW5       0.050200
     68 H25         -3.4100     1.8060    -0.4120 h1         1 TW5       0.053200
     69 H26         -4.1060     0.7430    -1.6370 h1         1 TW5       0.053200
     70 H27         -8.0360    -1.1460     1.6170 ha         1 TW5       0.117500
     71 H28        -10.4220    -0.7400     1.7540 ha         1 TW5       0.128000
     72 H29        -10.0850     2.3550    -1.1880 ha         1 TW5       0.128000
     73 H30         -7.7020     1.9280    -1.3770 ha         1 TW5       0.117500
@<TRIPOS>BOND
     1     1     2 2   
     2     2     3 1   
     3     2    10 1   
     4     3     4 1   
     5     3    44 1   
     6     4     5 ar  
     7     4     9 ar  
     8     5     6 ar  
     9     5    45 1   
    10     6     7 ar  
    11     6    46 1   
    12     7     8 ar  
    13     8     9 ar  
    14     8    47 1   
    15     9    48 1   
    16    10    11 1   
    17    10    21 1   
    18    10    49 1   
    19    11    12 1   
    20    11    50 1   
    21    11    51 1   
    22    12    13 1   
    23    12    20 2   
    24    13    14 ar  
    25    13    18 ar  
    26    14    15 ar  
    27    14    52 1   
    28    15    16 ar  
    29    15    53 1   
    30    16    17 ar  
    31    16    54 1   
    32    17    18 ar  
    33    17    55 1   
    34    18    19 1   
    35    19    20 1   
    36    19    56 1   
    37    20    57 1   
    38    21    22 1   
    39    21    58 1   
    40    22    23 2   
    41    22    24 1   
    42    24    25 ar  
    43    24    30 ar  
    44    25    26 1   
    45    25    27 ar  
    46    27    28 ar  
    47    27    59 1   
    48    28    29 ar  
    49    28    31 1   
    50    29    30 ar  
    51    29    60 1   
    52    30    61 1   
    53    31    32 1   
    54    31    36 1   
    55    32    33 1   
    56    32    62 1   
    57    32    63 1   
    58    33    34 1   
    59    33    64 1   
    60    33    65 1   
    61    34    35 1   
    62    34    37 1   
    63    35    36 1   
    64    35    66 1   
    65    35    67 1   
    66    36    68 1   
    67    36    69 1   
    68    37    38 ar  
    69    37    43 ar  
    70    38    39 ar  
    71    38    70 1   
    72    39    40 ar  
    73    39    71 1   
    74    40    41 1   
    75    40    42 ar  
    76    42    43 ar  
    77    42    72 1   
    78    43    73 1   
@<TRIPOS>SUBSTRUCTURE
     1 TW5         1 TEMP              0 ****  ****    0 ROOT
