@<TRIPOS>MOLECULE
TW6
   60    64     1     0     0
SMALL
No Charge or Current Charge


@<TRIPOS>ATOM
      1 N1          -7.5940    -3.0840    14.9250 n          1 TW6      -0.374800
      2 C4          -8.2430     1.1360    15.0980 ca         1 TW6      -0.148000
      3 C5          -8.0530    -0.2570    15.1640 ca         1 TW6      -0.028300
      4 C6          -6.7860    -0.7750    15.5230 ca         1 TW6      -0.122300
      5 C7          -9.2150    -1.1930    14.8290 c6         1 TW6      -0.011100
      6 C8          -8.9650    -2.6530    15.2480 cx         1 TW6       0.050400
      7 C10         -7.2370    -4.1690    14.0780 c          1 TW6       0.619700
      8 C13         -9.2170    -6.8090    12.1460 ca         1 TW6      -0.117500
      9 C15        -10.0700    -4.6220    11.5180 ca         1 TW6      -0.117500
     10 C17         -9.5620    -3.0760    16.5790 cx         1 TW6      -0.119900
     11 C20         -5.5000    -3.8820    17.3240 ca         1 TW6      -0.058000
     12 C21         -5.2840    -4.3300    18.6390 ca         1 TW6      -0.177500
     13 C22         -5.8880    -3.6580    19.7230 ca         1 TW6       0.147100
     14 C24         -6.9160    -2.0930    18.1610 ca         1 TW6      -0.058000
     15 C26         -4.9030    -5.3520    22.9420 c3         1 TW6       0.161800
     16 C1          -5.7310     0.1120    15.8130 ca         1 TW6      -0.057000
     17 C11         -8.2610    -4.7960    13.1570 ca         1 TW6      -0.131600
     18 C12         -8.2900    -6.2000    13.0090 ca         1 TW6      -0.076500
     19 C14        -10.1120    -6.0210    11.4050 ca         1 TW6      -0.096000
     20 C16         -9.1440    -4.0120    12.3820 ca         1 TW6      -0.076500
     21 C18        -10.1600    -3.5940    15.3040 cx         1 TW6      -0.119900
     22 C19         -6.3180    -2.7630    17.0720 ca         1 TW6      -0.137300
     23 C2          -5.9310     1.5020    15.7460 ca         1 TW6      -0.198000
     24 C23         -6.7000    -2.5420    19.4750 ca         1 TW6      -0.177500
     25 C25         -4.8900    -5.1790    21.3960 c3         1 TW6       0.163600
     26 C27         -4.3400    -2.9860    23.6190 c3         1 TW6       0.147100
     27 C3          -7.1870     2.0110    15.3890 ca         1 TW6       0.138100
     28 C9          -6.5390    -2.2930    15.6210 c6         1 TW6       0.214300
     29 N2          -3.9920    -4.4230    23.6720 n7         1 TW6      -0.866400
     30 O1          -7.3850     3.3570    15.3210 oh         1 TW6      -0.539100
     31 O2          -6.0830    -4.5840    14.0510 o          1 TW6      -0.607100
     32 O3          -5.7150    -4.0510    21.0330 os         1 TW6      -0.358100
     33 H1          -9.2120     1.5400    14.8180 ha         1 TW6       0.127000
     34 H2          -9.3970    -1.1520    13.7490 hc         1 TW6       0.059700
     35 H3         -10.1360    -0.8210    15.2990 hc         1 TW6       0.059700
     36 H4          -9.2400    -7.8920    12.0510 ha         1 TW6       0.116000
     37 H5         -10.7490    -4.0090    10.9300 ha         1 TW6       0.116000
     38 H6         -10.1300    -2.3440    17.1470 hc         1 TW6       0.082450
     39 H7          -9.0090    -3.7870    17.1870 hc         1 TW6       0.082450
     40 H8          -5.0270    -4.4090    16.4990 ha         1 TW6       0.125000
     41 H9          -4.6490    -5.1970    18.7950 ha         1 TW6       0.121500
     42 H10         -7.5550    -1.2280    17.9970 ha         1 TW6       0.125000
     43 H11         -5.9360    -5.2510    23.3050 h1         1 TW6       0.040200
     44 H12         -4.5960    -6.3850    23.1540 h1         1 TW6       0.040200
     45 H13         -4.7540    -0.2770    16.0970 ha         1 TW6       0.121000
     46 H14         -7.6000    -6.8210    13.5770 ha         1 TW6       0.121500
     47 H15        -10.8290    -6.4930    10.7350 ha         1 TW6       0.114000
     48 H16         -9.1020    -2.9290    12.4300 ha         1 TW6       0.121500
     49 H17        -11.1280    -3.2030    15.0020 hc         1 TW6       0.082450
     50 H18        -10.0230    -4.6530    15.1070 hc         1 TW6       0.082450
     51 H19         -5.1060     2.1730    15.9750 ha         1 TW6       0.116000
     52 H20         -7.1670    -2.0220    20.3070 ha         1 TW6       0.121500
     53 H21         -5.2900    -6.0940    20.9400 h1         1 TW6       0.043700
     54 H22         -3.8570    -5.0450    21.0490 h1         1 TW6       0.043700
     55 H23         -3.6530    -2.4010    24.2460 h1         1 TW6       0.034033
     56 H24         -4.2680    -2.5950    22.5960 h1         1 TW6       0.034033
     57 H25         -5.3610    -2.8140    23.9850 h1         1 TW6       0.034033
     58 H26         -5.5880    -2.4570    15.0920 h1         1 TW6       0.095700
     59 H27         -3.9940    -4.7040    24.6620 hn         1 TW6       0.407000
     60 H29         -6.5430     3.8050    15.5540 ho         1 TW6       0.463000
@<TRIPOS>BOND
     1     1     6 1   
     2     1     7 1   
     3     1    28 1   
     4     2     3 ar  
     5     2    27 ar  
     6     2    33 1   
     7     3     4 ar  
     8     3     5 1   
     9     4    16 ar  
    10     4    28 1   
    11     5     6 1   
    12     5    34 1   
    13     5    35 1   
    14     6    10 1   
    15     6    21 1   
    16     7    17 1   
    17     7    31 2   
    18     8    18 ar  
    19     8    19 ar  
    20     8    36 1   
    21     9    19 ar  
    22     9    20 ar  
    23     9    37 1   
    24    10    21 1   
    25    10    38 1   
    26    10    39 1   
    27    11    12 ar  
    28    11    22 ar  
    29    11    40 1   
    30    12    13 ar  
    31    12    41 1   
    32    13    24 ar  
    33    13    32 1   
    34    14    22 ar  
    35    14    24 ar  
    36    14    42 1   
    37    15    25 1   
    38    15    29 1   
    39    15    43 1   
    40    15    44 1   
    41    16    23 ar  
    42    16    45 1   
    43    17    18 ar  
    44    17    20 ar  
    45    18    46 1   
    46    19    47 1   
    47    20    48 1   
    48    21    49 1   
    49    21    50 1   
    50    22    28 1   
    51    23    27 ar  
    52    23    51 1   
    53    24    52 1   
    54    25    32 1   
    55    25    53 1   
    56    25    54 1   
    57    26    29 1   
    58    26    55 1   
    59    26    56 1   
    60    26    57 1   
    61    27    30 1   
    62    28    58 1   
    63    29    59 1   
    64    30    60 1   
@<TRIPOS>SUBSTRUCTURE
     1 TW6         1 TEMP              0 ****  ****    0 ROOT
