@<TRIPOS>MOLECULE
TW6
   60    64     1     0     0
SMALL
abcg2


@<TRIPOS>ATOM
      1 N1          -7.5400    -3.0760    14.9910 n          1 TW6      -0.374800
      2 C4          -8.3410     1.0370    15.0080 ca         1 TW6      -0.148000
      3 C5          -8.1030    -0.3330    15.1330 ca         1 TW6      -0.028300
      4 C6          -6.8260    -0.7830    15.4730 ca         1 TW6      -0.122300
      5 C7          -9.2250    -1.3060    14.8640 c6         1 TW6      -0.011100
      6 C8          -8.8910    -2.6990    15.3450 cx         1 TW6       0.050400
      7 C10         -7.1590    -4.0050    14.0790 c          1 TW6       0.619700
      8 C13         -9.2020    -6.6850    12.3830 ca         1 TW6      -0.117500
      9 C15         -9.9070    -4.5500    11.5190 ca         1 TW6      -0.117500
     10 C17         -9.4000    -3.1100    16.7100 cx         1 TW6      -0.119900
     11 C20         -5.6710    -3.9120    17.3370 ca         1 TW6      -0.058000
     12 C21         -5.4740    -4.3760    18.6340 ca         1 TW6      -0.177500
     13 C22         -5.8790    -3.5900    19.7150 ca         1 TW6       0.147100
     14 C24         -6.6600    -1.9050    18.1740 ca         1 TW6      -0.058000
     15 C26         -5.0400    -5.3710    22.8260 c3         1 TW6       0.161800
     16 C1          -5.8100     0.1530    15.6730 ca         1 TW6      -0.057000
     17 C11         -8.1990    -4.6550    13.2190 ca         1 TW6      -0.131600
     18 C12         -8.2880    -6.0470    13.2120 ca         1 TW6      -0.076500
     19 C14        -10.0130    -5.9370    11.5340 ca         1 TW6      -0.096000
     20 C16         -9.0080    -3.9100    12.3650 ca         1 TW6      -0.076500
     21 C18         -9.9830    -3.7140    15.4650 cx         1 TW6      -0.119900
     22 C19         -6.2680    -2.6800    17.0840 ca         1 TW6      -0.137300
     23 C2          -6.0430     1.5130    15.5500 ca         1 TW6      -0.198000
     24 C23         -6.4730    -2.3490    19.4740 ca         1 TW6      -0.177500
     25 C25         -5.1340    -5.2110    21.3230 c3         1 TW6       0.163600
     26 C27         -4.3700    -3.1740    23.7120 c3         1 TW6       0.147100
     27 C3          -7.3230     1.9570    15.2160 ca         1 TW6       0.138100
     28 C9          -6.5000    -2.2530    15.6400 c6         1 TW6       0.214300
     29 N2          -3.9910    -4.5610    23.4440 n7         1 TW6      -0.866400
     30 O1          -7.6240     3.2840    15.0800 oh         1 TW6      -0.539100
     31 O2          -5.9760    -4.3280    13.9230 o          1 TW6      -0.607100
     32 O3          -5.7310    -3.9440    21.0200 os         1 TW6      -0.358100
     33 H1          -9.3310     1.3940    14.7450 ha         1 TW6       0.127000
     34 H2          -9.4280    -1.3250    13.7890 hc         1 TW6       0.059700
     35 H3         -10.1410    -0.9610    15.3450 hc         1 TW6       0.059700
     36 H4          -9.2790    -7.7650    12.3960 ha         1 TW6       0.116000
     37 H5         -10.5250    -3.9640    10.8510 ha         1 TW6       0.116000
     38 H6          -9.9690    -2.3760    17.2650 hc         1 TW6       0.082450
     39 H7          -8.7630    -3.7440    17.3070 hc         1 TW6       0.082450
     40 H8          -5.3620    -4.5320    16.5050 ha         1 TW6       0.125000
     41 H9          -5.0090    -5.3380    18.7880 ha         1 TW6       0.121500
     42 H10         -7.1280    -0.9440    18.0090 ha         1 TW6       0.125000
     43 H11         -6.0320    -5.1750    23.2630 h1         1 TW6       0.040200
     44 H12         -4.8050    -6.4210    23.0140 h1         1 TW6       0.040200
     45 H13         -4.8170    -0.1920    15.9350 ha         1 TW6       0.121000
     46 H14         -7.6490    -6.6250    13.8680 ha         1 TW6       0.121500
     47 H15        -10.7220    -6.4340    10.8830 ha         1 TW6       0.114000
     48 H16         -8.9290    -2.8320    12.3500 ha         1 TW6       0.121500
     49 H17        -10.9640    -3.4010    15.1320 hc         1 TW6       0.082450
     50 H18         -9.7520    -4.7480    15.2640 hc         1 TW6       0.082450
     51 H19         -5.2440     2.2280    15.7060 ha         1 TW6       0.116000
     52 H20         -6.7850    -1.7450    20.3160 ha         1 TW6       0.121500
     53 H21         -5.7530    -6.0100    20.9030 h1         1 TW6       0.043700
     54 H22         -4.1360    -5.2650    20.8770 h1         1 TW6       0.043700
     55 H23         -3.5960    -2.7030    24.3180 h1         1 TW6       0.034033
     56 H24         -4.4590    -2.6200    22.7790 h1         1 TW6       0.034033
     57 H25         -5.3290    -3.0870    24.2460 h1         1 TW6       0.034033
     58 H26         -5.5860    -2.4610    15.0890 h1         1 TW6       0.095700
     59 H27         -3.7310    -4.9980    24.3200 hn         1 TW6       0.407000
     60 H29         -6.8370     3.8180    15.2560 ho         1 TW6       0.463000
@<TRIPOS>BOND
     1     1     6 1   
     2     1     7 1   
     3     1    28 1   
     4     2     3 ar  
     5     2    27 ar  
     6     2    33 1   
     7     3     4 ar  
     8     3     5 1   
     9     4    16 ar  
    10     4    28 1   
    11     5     6 1   
    12     5    34 1   
    13     5    35 1   
    14     6    10 1   
    15     6    21 1   
    16     7    17 1   
    17     7    31 2   
    18     8    18 ar  
    19     8    19 ar  
    20     8    36 1   
    21     9    19 ar  
    22     9    20 ar  
    23     9    37 1   
    24    10    21 1   
    25    10    38 1   
    26    10    39 1   
    27    11    12 ar  
    28    11    22 ar  
    29    11    40 1   
    30    12    13 ar  
    31    12    41 1   
    32    13    24 ar  
    33    13    32 1   
    34    14    22 ar  
    35    14    24 ar  
    36    14    42 1   
    37    15    25 1   
    38    15    29 1   
    39    15    43 1   
    40    15    44 1   
    41    16    23 ar  
    42    16    45 1   
    43    17    18 ar  
    44    17    20 ar  
    45    18    46 1   
    46    19    47 1   
    47    20    48 1   
    48    21    49 1   
    49    21    50 1   
    50    22    28 1   
    51    23    27 ar  
    52    23    51 1   
    53    24    52 1   
    54    25    32 1   
    55    25    53 1   
    56    25    54 1   
    57    26    29 1   
    58    26    55 1   
    59    26    56 1   
    60    26    57 1   
    61    27    30 1   
    62    28    58 1   
    63    29    59 1   
    64    30    60 1   
@<TRIPOS>SUBSTRUCTURE
     1 TW6         1 TEMP              0 ****  ****    0 ROOT
