@<TRIPOS>MOLECULE
TW7
   22    22     1     0     0
SMALL
bcc


@<TRIPOS>ATOM
      1 C1          25.1730   -30.1560   281.7560 c6         1 TW7       0.336400
      2 C2          23.9540   -30.0690   280.8400 c6         1 TW7       0.331600
      3 F1          25.0840   -31.3530   282.4440 f          1 TW7      -0.252300
      4 F21         23.9130   -28.7970   280.3590 f          1 TW7      -0.222300
      5 F22         22.8210   -30.2390   281.5710 f          1 TW7      -0.222300
      6 O4          25.4390   -31.9370   278.0160 oh         1 TW7      -0.585800
      7 C3          23.9980   -31.0590   279.6820 c6         1 TW7       0.108100
      8 C4          25.3400   -30.9130   278.9700 c6         1 TW7       0.127100
      9 C5          26.4800   -31.0440   279.9900 c6         1 TW7       0.112100
     10 C6          27.8530   -30.8470   279.3890 c3         1 TW7       0.144400
     11 O3          22.9660   -30.8150   278.7740 oh         1 TW7      -0.562800
     12 O5          26.3320   -30.0880   281.0460 os         1 TW7      -0.388600
     13 O6          27.9190   -29.5970   278.7490 oh         1 TW7      -0.589800
     14 H1          25.1760   -29.3450   282.4870 h2         1 TW7       0.117700
     15 H3          23.9410   -32.0720   280.1050 h1         1 TW7       0.070700
     16 H4          25.3810   -29.9230   278.5000 h1         1 TW7       0.087700
     17 H5          26.4600   -32.0600   280.4020 h1         1 TW7       0.066700
     18 H61         28.0340   -31.6770   278.6970 h1         1 TW7       0.036700
     19 H62         28.5970   -30.9390   280.1900 h1         1 TW7       0.036700
     20 HO3         22.1660   -31.2530   279.0780 ho         1 TW7       0.421000
     21 HO6         28.7440   -29.5520   278.2590 ho         1 TW7       0.408000
     22 HO4         25.9160   -31.6030   277.2510 ho         1 TW7       0.418000
@<TRIPOS>BOND
     1     1     2 1   
     2     1     3 1   
     3     1    12 1   
     4     1    14 1   
     5     2     4 1   
     6     2     5 1   
     7     2     7 1   
     8     6     8 1   
     9     6    22 1   
    10     7     8 1   
    11     7    11 1   
    12     7    15 1   
    13     8     9 1   
    14     8    16 1   
    15     9    10 1   
    16     9    12 1   
    17     9    17 1   
    18    10    13 1   
    19    10    18 1   
    20    10    19 1   
    21    11    20 1   
    22    13    21 1   
@<TRIPOS>SUBSTRUCTURE
     1 TW7         1 TEMP              0 ****  ****    0 ROOT
