@<TRIPOS>MOLECULE
TW7
   22    22     1     0     0
SMALL
No Charge or Current Charge


@<TRIPOS>ATOM
      1 C1          25.0970   -30.1700   281.7670 c6         1 TW7       0.378300
      2 C2          23.9090   -30.0580   280.7690 c6         1 TW7       0.089000
      3 F1          25.0710   -31.4440   282.3780 f          1 TW7      -0.271000
      4 F21         23.8680   -28.7470   280.2500 f          1 TW7      -0.101000
      5 F22         22.6900   -30.2380   281.4530 f          1 TW7      -0.101000
      6 O4          25.5730   -31.9660   277.9140 oh         1 TW7      -0.708000
      7 C3          24.0360   -31.0840   279.6050 c6         1 TW7       0.131300
      8 C4          25.4350   -30.9510   278.9290 c6         1 TW7       0.150300
      9 C5          26.5660   -31.0460   280.0070 c6         1 TW7       0.135300
     10 C6          27.9920   -30.8090   279.4060 c3         1 TW7       0.167600
     11 O3          22.9930   -30.9190   278.6200 oh         1 TW7      -0.625000
     12 O5          26.3550   -30.0570   281.0570 os         1 TW7      -0.435000
     13 O6          28.1990   -29.4680   278.9130 oh         1 TW7      -0.712000
     14 H1          25.0210   -29.4050   282.5540 h2         1 TW7       0.117700
     15 H3          23.9700   -32.0920   280.0430 h1         1 TW7       0.070700
     16 H4          25.4960   -29.9520   278.4690 h1         1 TW7       0.087700
     17 H5          26.5560   -32.0510   280.4520 h1         1 TW7       0.066700
     18 H61         28.1580   -31.5400   278.6030 h1         1 TW7       0.036700
     19 H62         28.7240   -31.0330   280.1940 h1         1 TW7       0.036700
     20 HO3         22.1350   -30.9210   279.1020 ho         1 TW7       0.460000
     21 HO6         29.1400   -29.4100   278.6260 ho         1 TW7       0.507000
     22 HO4         24.7030   -31.9780   277.4450 ho         1 TW7       0.517000
@<TRIPOS>BOND
     1     1     2 1   
     2     1     3 1   
     3     1    12 1   
     4     1    14 1   
     5     2     4 1   
     6     2     5 1   
     7     2     7 1   
     8     6     8 1   
     9     6    22 1   
    10     7     8 1   
    11     7    11 1   
    12     7    15 1   
    13     8     9 1   
    14     8    16 1   
    15     9    10 1   
    16     9    12 1   
    17     9    17 1   
    18    10    13 1   
    19    10    18 1   
    20    10    19 1   
    21    11    20 1   
    22    13    21 1   
@<TRIPOS>SUBSTRUCTURE
     1 TW7         1 TEMP              0 ****  ****    0 ROOT
