@<TRIPOS>MOLECULE
TW8
   35    37     1     0     0
SMALL
No Charge or Current Charge


@<TRIPOS>ATOM
      1 C02        -19.6050   -21.8310     4.0450 c          1 TW8       0.578500
      2 C03        -18.9950   -22.0450     2.6840 ca         1 TW8      -0.152600
      3 C04        -19.7950   -21.9180     1.5290 ca         1 TW8      -0.084500
      4 C05        -19.2400   -22.1120     0.2520 ca         1 TW8      -0.027000
      5 C06        -17.8740   -22.4330     0.1150 ca         1 TW8      -0.268500
      6 C10        -17.2430   -20.0250    -2.0640 c6         1 TW8       0.177800
      7 C11        -17.5440   -19.1160    -0.8230 c6         1 TW8       0.196800
      8 C13        -15.2290   -19.6920    -0.0410 ca         1 TW8       0.324000
      9 C14        -14.1570   -19.4100     0.8210 ca         1 TW8      -0.192000
     10 C15        -13.0490   -20.2680     0.8780 ca         1 TW8      -0.056000
     11 C16        -13.0040   -21.4010     0.0530 ca         1 TW8      -0.160000
     12 C17        -14.0730   -21.6940    -0.8120 ca         1 TW8      -0.031000
     13 C18        -15.2220   -20.8720    -0.8550 ca         1 TW8       0.138000
     14 C20        -17.0730   -22.5700     1.2670 ca         1 TW8      -0.027000
     15 C21        -17.6290   -22.3740     2.5420 ca         1 TW8      -0.084500
     16 N09        -16.3270   -21.1700    -1.7240 nh         1 TW8      -0.715300
     17 N12        -16.2920   -18.7770    -0.1100 nu         1 TW8      -0.977200
     18 O08        -16.1380   -23.7300    -1.4330 o          1 TW8      -0.529500
     19 O19        -18.2220   -22.7370    -2.5220 o          1 TW8      -0.529500
     20 S07        -17.1500   -22.6720    -1.5220 sy         1 TW8       1.147600
     21 H1         -20.6870   -21.5750     4.0570 h4         1 TW8      -0.006800
     22 H4         -20.8500   -21.6670     1.6180 ha         1 TW8       0.128500
     23 H5         -19.8770   -22.0070    -0.6250 ha         1 TW8       0.141500
     24 H7         -18.2020   -20.3450    -2.4950 h1         1 TW8       0.083200
     25 H8         -18.0770   -18.2080    -1.1420 h1         1 TW8       0.049200
     26 H9         -18.2150   -19.6620    -0.1450 h1         1 TW8       0.049200
     27 H10        -14.1770   -18.5180     1.4400 ha         1 TW8       0.113000
     28 H11        -12.2180   -20.0440     1.5450 ha         1 TW8       0.114000
     29 H12        -12.1330   -22.0530     0.0760 ha         1 TW8       0.123000
     30 H13        -13.9910   -22.5570    -1.4650 ha         1 TW8       0.140000
     31 H14        -16.0180   -22.8240     1.1800 ha         1 TW8       0.141500
     32 H15        -16.9950   -22.4790     3.4200 ha         1 TW8       0.128500
     33 H16        -16.2890   -18.0120     0.5680 hn         1 TW8       0.490000
     34 O1         -18.9730   -21.9260     5.0930 o          1 TW8      -0.502100
     35 H6         -16.7620   -19.4020    -2.8310 h1         1 TW8       0.083200
@<TRIPOS>BOND
     1     1     2 1   
     2     1    21 1   
     3     1    34 2   
     4     2     3 ar  
     5     2    15 ar  
     6     3     4 ar  
     7     3    22 1   
     8     4     5 ar  
     9     4    23 1   
    10     5    14 ar  
    11     5    20 1   
    12     6     7 1   
    13     6    16 1   
    14     6    24 1   
    15     6    35 1   
    16     7    17 1   
    17     7    25 1   
    18     7    26 1   
    19     8     9 ar  
    20     8    13 ar  
    21     8    17 1   
    22     9    10 ar  
    23     9    27 1   
    24    10    11 ar  
    25    10    28 1   
    26    11    12 ar  
    27    11    29 1   
    28    12    13 ar  
    29    12    30 1   
    30    13    16 1   
    31    14    15 ar  
    32    14    31 1   
    33    15    32 1   
    34    16    20 1   
    35    17    33 1   
    36    18    20 2   
    37    19    20 2   
@<TRIPOS>SUBSTRUCTURE
     1 TW8         1 TEMP              0 ****  ****    0 ROOT
