@<TRIPOS>MOLECULE
TW8
   35    37     1     0     0
SMALL
abcg2


@<TRIPOS>ATOM
      1 C02        -19.7940   -21.8030     3.9880 c          1 TW8       0.578500
      2 C03        -19.1240   -22.0240     2.6900 ca         1 TW8      -0.152600
      3 C04        -19.8890   -21.9880     1.5290 ca         1 TW8      -0.084500
      4 C05        -19.2950   -22.1860     0.2920 ca         1 TW8      -0.027000
      5 C06        -17.9300   -22.4220     0.2390 ca         1 TW8      -0.268500
      6 C10        -17.1080   -19.9990    -1.9780 c6         1 TW8       0.177800
      7 C11        -17.5060   -19.2140    -0.7390 c6         1 TW8       0.196800
      8 C13        -15.2420   -19.8120     0.0290 ca         1 TW8       0.324000
      9 C14        -14.0960   -19.4980     0.7780 ca         1 TW8      -0.192000
     10 C15        -12.9380   -20.2370     0.6400 ca         1 TW8      -0.056000
     11 C16        -12.8700   -21.2940    -0.2640 ca         1 TW8      -0.160000
     12 C17        -13.9860   -21.6050    -1.0220 ca         1 TW8      -0.031000
     13 C18        -15.1730   -20.9010    -0.8580 ca         1 TW8       0.138000
     14 C20        -17.1510   -22.4780     1.3920 ca         1 TW8      -0.027000
     15 C21        -17.7540   -22.2730     2.6180 ca         1 TW8      -0.084500
     16 N09        -16.3250   -21.1930    -1.6410 nh         1 TW8      -0.715300
     17 N12        -16.3830   -19.0820     0.1560 nu         1 TW8      -0.977200
     18 O08        -16.1450   -23.6610    -1.2040 o          1 TW8      -0.529500
     19 O19        -18.1710   -22.7230    -2.3570 o          1 TW8      -0.529500
     20 S07        -17.1400   -22.6150    -1.3410 sy         1 TW8       1.147600
     21 H1         -20.8780   -21.6090     3.9160 h4         1 TW8      -0.006800
     22 H4         -20.9550   -21.8050     1.5890 ha         1 TW8       0.128500
     23 H5         -19.8930   -22.1530    -0.6080 ha         1 TW8       0.141500
     24 H7         -17.9880   -20.2760    -2.5530 h1         1 TW8       0.083200
     25 H8         -17.8480   -18.2240    -1.0490 h1         1 TW8       0.049200
     26 H9         -18.3510   -19.6950    -0.2380 h1         1 TW8       0.049200
     27 H10        -14.1340   -18.6640     1.4690 ha         1 TW8       0.113000
     28 H11        -12.0720   -19.9750     1.2350 ha         1 TW8       0.114000
     29 H12        -11.9540   -21.8560    -0.3880 ha         1 TW8       0.123000
     30 H13        -13.9410   -22.4020    -1.7500 ha         1 TW8       0.140000
     31 H14        -16.0900   -22.6840     1.3430 ha         1 TW8       0.141500
     32 H15        -17.1590   -22.3110     3.5210 ha         1 TW8       0.128500
     33 H16        -16.3340   -18.2460     0.7130 hn         1 TW8       0.490000
     34 O1         -19.2310   -21.8240     5.0540 o          1 TW8      -0.502100
     35 H6         -16.4750   -19.3920    -2.6270 h1         1 TW8       0.083200
@<TRIPOS>BOND
     1     1     2 1   
     2     1    21 1   
     3     1    34 2   
     4     2     3 ar  
     5     2    15 ar  
     6     3     4 ar  
     7     3    22 1   
     8     4     5 ar  
     9     4    23 1   
    10     5    14 ar  
    11     5    20 1   
    12     6     7 1   
    13     6    16 1   
    14     6    24 1   
    15     6    35 1   
    16     7    17 1   
    17     7    25 1   
    18     7    26 1   
    19     8     9 ar  
    20     8    13 ar  
    21     8    17 1   
    22     9    10 ar  
    23     9    27 1   
    24    10    11 ar  
    25    10    28 1   
    26    11    12 ar  
    27    11    29 1   
    28    12    13 ar  
    29    12    30 1   
    30    13    16 1   
    31    14    15 ar  
    32    14    31 1   
    33    15    32 1   
    34    16    20 1   
    35    17    33 1   
    36    18    20 2   
    37    19    20 2   
@<TRIPOS>SUBSTRUCTURE
     1 TW8         1 TEMP              0 ****  ****    0 ROOT
