@<TRIPOS>MOLECULE
TWA
   33    33     1     0     0
SMALL
No Charge or Current Charge


@<TRIPOS>ATOM
      1 C6         -58.1340    21.7320   -54.8550 c3         1 TWA       0.148600
      2 C5         -57.5280    22.6340   -53.7260 c6         1 TWA       0.183300
      3 C1         -57.9350    24.7120   -52.5530 c6         1 TWA       0.391300
      4 C2         -57.7160    24.0410   -51.1510 c6         1 TWA       0.186300
      5 C3         -56.7230    22.8470   -51.3350 c6         1 TWA       0.182300
      6 C4         -57.3210    21.8530   -52.3890 c6         1 TWA       0.204300
      7 O6         -58.3770    22.4340   -56.0960 oh         1 TWA      -0.734000
      8 O5         -58.4240    23.7570   -53.5080 os         1 TWA      -0.506000
      9 O2         -58.9850    23.5900   -50.5980 os         1 TWA      -0.587700
     10 O34        -59.3710    25.4030   -48.9980 o          1 TWA      -0.716200
     11 O35        -58.1880    23.3560   -48.2920 o          1 TWA      -0.716200
     12 O36        -60.6070    23.2750   -48.7900 o          1 TWA      -0.716200
     13 O3         -55.4270    23.3420   -51.7810 os         1 TWA      -0.602700
     14 O40        -53.0720    23.9550   -51.4800 o          1 TWA      -0.720533
     15 O41        -54.1300    22.3310   -49.9470 o          1 TWA      -0.720533
     16 O42        -54.7720    24.7110   -49.8580 o          1 TWA      -0.720533
     17 O4         -56.4430    20.7170   -52.5870 os         1 TWA      -0.581700
     18 O46        -57.2360    19.4640   -50.6310 o          1 TWA      -0.720533
     19 O47        -55.8120    18.3610   -52.3250 o          1 TWA      -0.720533
     20 O48        -58.1410    18.9750   -52.8720 o          1 TWA      -0.720533
     21 S33        -59.3170    23.9360   -49.0300 s6         1 TWA       1.496300
     22 S39        -54.2470    23.6050   -50.6690 s6         1 TWA       1.504300
     23 S45        -56.9500    19.2500   -52.0560 s6         1 TWA       1.502300
     24 H6C1       -59.0700    21.2990   -54.4770 h1         1 TWA       0.044700
     25 H6C2       -57.4410    20.8970   -55.0320 h1         1 TWA       0.044700
     26 H5         -56.5600    23.0150   -54.0830 h1         1 TWA       0.055700
     27 H1         -56.9940    25.1520   -52.9170 h2         1 TWA       0.025700
     28 H2         -57.2640    24.7930   -50.4870 h1         1 TWA       0.087700
     29 H3         -56.6210    22.3110   -50.3800 h1         1 TWA       0.119700
     30 H4         -58.3070    21.5100   -52.0390 h1         1 TWA       0.069700
     31 H6         -58.8200    21.7980   -56.7030 ho         1 TWA       0.462000
     32 O1         -58.9400    25.7130   -52.4790 oh         1 TWA      -0.626000
     33 HA         -59.6690    25.2670   -52.0000 ho         1 TWA       0.403000
@<TRIPOS>BOND
     1     1     2 1   
     2     1     7 1   
     3     1    24 1   
     4     1    25 1   
     5     2     6 1   
     6     2     8 1   
     7     2    26 1   
     8     3     4 1   
     9     3     8 1   
    10     3    27 1   
    11     3    32 1   
    12     4     5 1   
    13     4     9 1   
    14     4    28 1   
    15     5     6 1   
    16     5    13 1   
    17     5    29 1   
    18     6    17 1   
    19     6    30 1   
    20     7    31 1   
    21     9    21 1   
    22    10    21 1   
    23    11    21 1   
    24    12    21 1   
    25    13    22 1   
    26    14    22 1   
    27    15    22 1   
    28    16    22 1   
    29    17    23 1   
    30    18    23 1   
    31    19    23 1   
    32    20    23 1   
    33    32    33 1   
@<TRIPOS>SUBSTRUCTURE
     1 TWA         1 TEMP              0 ****  ****    0 ROOT
