@<TRIPOS>MOLECULE
TWA
   33    33     1     0     0
SMALL
bcc


@<TRIPOS>ATOM
      1 C6         -58.3960    21.6590   -54.6170 c3         1 TWA       0.125400
      2 C5         -57.6800    22.5980   -53.6690 c6         1 TWA       0.160100
      3 C1         -57.9710    24.7000   -52.6090 c6         1 TWA       0.344900
      4 C2         -57.7640    24.1320   -51.2090 c6         1 TWA       0.163100
      5 C3         -56.8310    22.9190   -51.3130 c6         1 TWA       0.159100
      6 C4         -57.3680    21.9170   -52.3320 c6         1 TWA       0.181100
      7 O6         -58.5470    22.3000   -55.8620 oh         1 TWA      -0.611800
      8 O5         -58.5230    23.7110   -53.4490 os         1 TWA      -0.459600
      9 O2         -59.0440    23.7730   -50.7210 os         1 TWA      -0.564500
     10 O34        -58.5990    24.7210   -48.4620 o          1 TWA      -0.716200
     11 O35        -58.7720    22.2860   -48.7490 o          1 TWA      -0.716200
     12 O36        -60.7610    23.6940   -49.0560 o          1 TWA      -0.716200
     13 O3         -55.5770    23.3870   -51.7840 os         1 TWA      -0.579500
     14 O40        -53.4130    24.3600   -51.5240 o          1 TWA      -0.720533
     15 O41        -53.8820    22.2160   -50.4030 o          1 TWA      -0.720533
     16 O42        -54.9090    24.2770   -49.5640 o          1 TWA      -0.720533
     17 O4         -56.3970    20.9110   -52.5640 os         1 TWA      -0.558500
     18 O46        -56.8380    19.6580   -50.4650 o          1 TWA      -0.720533
     19 O47        -55.3730    18.7740   -52.2400 o          1 TWA      -0.720533
     20 O48        -57.8110    18.8730   -52.5740 o          1 TWA      -0.720533
     21 S33        -59.3040    23.6060   -49.0990 s6         1 TWA       1.496300
     22 S39        -54.3360    23.5720   -50.7140 s6         1 TWA       1.504300
     23 S45        -56.6340    19.4230   -51.8960 s6         1 TWA       1.502300
     24 H6C1       -59.3650    21.3830   -54.1780 h1         1 TWA       0.044700
     25 H6C2       -57.8100    20.7380   -54.7030 h1         1 TWA       0.044700
     26 H5         -56.7350    22.9180   -54.1360 h1         1 TWA       0.055700
     27 H1         -56.9920    25.0100   -53.0060 h2         1 TWA       0.025700
     28 H2         -57.2970    24.8910   -50.5750 h1         1 TWA       0.087700
     29 H3         -56.7360    22.4230   -50.3440 h1         1 TWA       0.119700
     30 H4         -58.3000    21.4960   -51.9350 h1         1 TWA       0.069700
     31 H6         -58.9550    21.6760   -56.4680 ho         1 TWA       0.363000
     32 O1         -58.8500    25.7590   -52.5470 oh         1 TWA      -0.563800
     33 HA         -58.7730    26.2770   -53.3560 ho         1 TWA       0.364000
@<TRIPOS>BOND
     1     1     2 1   
     2     1     7 1   
     3     1    24 1   
     4     1    25 1   
     5     2     6 1   
     6     2     8 1   
     7     2    26 1   
     8     3     4 1   
     9     3     8 1   
    10     3    27 1   
    11     3    32 1   
    12     4     5 1   
    13     4     9 1   
    14     4    28 1   
    15     5     6 1   
    16     5    13 1   
    17     5    29 1   
    18     6    17 1   
    19     6    30 1   
    20     7    31 1   
    21     9    21 1   
    22    10    21 1   
    23    11    21 1   
    24    12    21 1   
    25    13    22 1   
    26    14    22 1   
    27    15    22 1   
    28    16    22 1   
    29    17    23 1   
    30    18    23 1   
    31    19    23 1   
    32    20    23 1   
    33    32    33 1   
@<TRIPOS>SUBSTRUCTURE
     1 TWA         1 TEMP              0 ****  ****    0 ROOT
