@<TRIPOS>MOLECULE
TWB
   29    30     1     0     0
SMALL
No Charge or Current Charge


@<TRIPOS>ATOM
      1 C01          5.3300     0.3620    -0.0000 c3         1 TWB      -0.031800
      2 C02          3.8060     0.2830     0.0020 ca         1 TWB      -0.080300
      3 C03          3.1800    -0.9770    -0.0240 ca         1 TWB      -0.148000
      4 C04          1.7820    -1.0820    -0.0230 ca         1 TWB       0.147100
      5 C06         -0.1300    -2.5570    -0.0500 c          1 TWB       0.667300
      6 C08         -0.9840    -1.3710    -0.0220 cc         1 TWB      -0.323200
      7 C09         -0.4950    -0.0840     0.0050 cd         1 TWB       0.118600
      8 C10         -1.3940     1.1380     0.0340 c3         1 TWB      -0.358200
      9 C15          0.9730     0.0690     0.0040 ca         1 TWB      -0.111800
     10 C16          1.6010     1.3340     0.0310 ca         1 TWB      -0.045000
     11 C17          3.0070     1.4490     0.0300 ca         1 TWB      -0.134300
     12 C18          3.6430     2.8370     0.0590 c3         1 TWB      -0.027800
     13 O05          1.2180    -2.3320    -0.0490 os         1 TWB      -0.374200
     14 O07         -0.5860    -3.6910    -0.0740 o          1 TWB      -0.553000
     15 O12         -3.6270     0.1710     1.2410 o          1 TWB      -0.924833
     16 O13         -3.8350     2.3030     0.0630 o          1 TWB      -0.924833
     17 O14         -3.6310     0.2250    -1.2080 o          1 TWB      -0.924833
     18 P11         -3.2240     0.9440     0.0320 p5         1 TWB       1.291500
     19 H1           5.7000     0.8720     0.8970 hc         1 TWB       0.024033
     20 H2           5.7900    -0.6330    -0.0230 hc         1 TWB       0.024033
     21 H3           5.6950     0.9110    -0.8760 hc         1 TWB       0.024033
     22 H4           3.7780    -1.8840    -0.0460 ha         1 TWB       0.106000
     23 H5          -2.0380    -1.6040    -0.0250 ha         1 TWB       0.283000
     24 H6          -1.1730     1.7330     0.9270 hc         1 TWB       0.032200
     25 H7          -1.1760     1.7730    -0.8320 hc         1 TWB       0.032200
     26 H8           1.0030     2.2410     0.0520 ha         1 TWB       0.137000
     27 H9           4.2680     3.0040    -0.8260 hc         1 TWB       0.025367
     28 H10          2.8880     3.6320     0.0780 hc         1 TWB       0.025367
     29 H11          4.2720     2.9650     0.9470 hc         1 TWB       0.025367
@<TRIPOS>BOND
     1     1     2 1   
     2     1    19 1   
     3     1    20 1   
     4     1    21 1   
     5     2     3 ar  
     6     2    11 ar  
     7     3     4 ar  
     8     3    22 1   
     9     4     9 ar  
    10     4    13 1   
    11     5     6 1   
    12     5    13 1   
    13     5    14 2   
    14     6     7 2   
    15     6    23 1   
    16     7     8 1   
    17     7     9 1   
    18     8    18 1   
    19     8    24 1   
    20     8    25 1   
    21     9    10 ar  
    22    10    11 ar  
    23    10    26 1   
    24    11    12 1   
    25    12    27 1   
    26    12    28 1   
    27    12    29 1   
    28    15    18 1   
    29    16    18 1   
    30    17    18 1   
@<TRIPOS>SUBSTRUCTURE
     1 TWB         1 TEMP              0 ****  ****    0 ROOT
