@<TRIPOS>MOLECULE
TWB
   29    30     1     0     0
SMALL
bcc


@<TRIPOS>ATOM
      1 C01          5.2570     0.3690     0.0380 c3         1 TWB      -0.031800
      2 C02          3.7620     0.2770     0.0240 ca         1 TWB      -0.080300
      3 C03          3.1420    -0.9620     0.0030 ca         1 TWB      -0.166000
      4 C04          1.7580    -1.0540    -0.0180 ca         1 TWB       0.147100
      5 C06         -0.1180    -2.5090    -0.1070 c          1 TWB       0.742800
      6 C08         -0.9720    -1.3490    -0.1060 cc         1 TWB      -0.273200
      7 C09         -0.4910    -0.0860    -0.0440 cd         1 TWB       0.118600
      8 C10         -1.3730     1.1190    -0.0210 c3         1 TWB      -0.200400
      9 C15          0.9530     0.0820    -0.0120 ca         1 TWB      -0.111800
     10 C16          1.5980     1.3250     0.0110 ca         1 TWB      -0.063000
     11 C17          2.9740     1.4460     0.0280 ca         1 TWB      -0.134300
     12 C18          3.6220     2.7990     0.0550 c3         1 TWB      -0.027800
     13 O05          1.2220    -2.2970    -0.0480 os         1 TWB      -0.374200
     14 O07         -0.4850    -3.6620    -0.1500 o          1 TWB      -0.628500
     15 O12         -3.4540     0.2020     1.4750 o          1 TWB      -0.924833
     16 O13         -3.7180     2.3680     0.1150 o          1 TWB      -0.924833
     17 O14         -3.6610     0.0920    -1.0810 o          1 TWB      -0.924833
     18 P11         -3.2310     0.9140     0.1390 p5         1 TWB       1.133700
     19 H1           5.6140     0.9120     0.9160 hc         1 TWB       0.024033
     20 H2           5.7150    -0.6190     0.0470 hc         1 TWB       0.024033
     21 H3           5.6290     0.9050    -0.8370 hc         1 TWB       0.024033
     22 H4           3.7370    -1.8670    -0.0010 ha         1 TWB       0.124000
     23 H5          -2.0340    -1.5300    -0.1780 ha         1 TWB       0.233000
     24 H6          -1.0320     1.7640     0.7980 hc         1 TWB       0.032200
     25 H7          -1.1610     1.7000    -0.9270 hc         1 TWB       0.032200
     26 H8           0.9930     2.2230     0.0110 ha         1 TWB       0.155000
     27 H9           4.3150     2.9330    -0.7780 hc         1 TWB       0.025367
     28 H10          2.8790     3.5930     0.0030 hc         1 TWB       0.025367
     29 H11          4.2000     2.9440     0.9690 hc         1 TWB       0.025367
@<TRIPOS>BOND
     1     1     2 1   
     2     1    19 1   
     3     1    20 1   
     4     1    21 1   
     5     2     3 ar  
     6     2    11 ar  
     7     3     4 ar  
     8     3    22 1   
     9     4     9 ar  
    10     4    13 1   
    11     5     6 1   
    12     5    13 1   
    13     5    14 2   
    14     6     7 2   
    15     6    23 1   
    16     7     8 1   
    17     7     9 1   
    18     8    18 1   
    19     8    24 1   
    20     8    25 1   
    21     9    10 ar  
    22    10    11 ar  
    23    10    26 1   
    24    11    12 1   
    25    12    27 1   
    26    12    28 1   
    27    12    29 1   
    28    15    18 1   
    29    16    18 1   
    30    17    18 1   
@<TRIPOS>SUBSTRUCTURE
     1 TWB         1 TEMP              0 ****  ****    0 ROOT
