@<TRIPOS>MOLECULE
TWC
   19    19     1     0     0
SMALL
abcg2


@<TRIPOS>ATOM
      1 N1           2.6840    -4.2130   -52.0580 n2         1 TWC      -0.344300
      2 C4           3.2320    -4.2910   -49.8320 c          1 TWC       0.550000
      3 C5           0.3250    -3.7050   -52.1800 c3         1 TWC       0.297700
      4 N            3.6780    -4.3980   -51.1290 n          1 TWC      -0.198800
      5 C            5.1520    -6.1790   -52.0140 c3         1 TWC      -0.114100
      6 O            3.9090    -4.4240   -48.8300 o          1 TWC      -0.496000
      7 C1           5.0250    -4.7290   -51.5640 c3         1 TWC       0.128000
      8 C2           1.5930    -3.9720   -51.4340 c2         1 TWC       0.195300
      9 C3           1.7480    -3.9780   -49.9520 c5         1 TWC      -0.227700
     10 F           -0.6260    -4.6160   -51.8680 f          1 TWC      -0.100333
     11 F1          -0.1820    -2.4940   -51.8540 f          1 TWC      -0.100333
     12 F2           0.4900    -3.7320   -53.5080 f          1 TWC      -0.100333
     13 H1           6.1750    -6.3740   -52.3380 hc         1 TWC       0.048700
     14 H2           4.9120    -6.8590   -51.1950 hc         1 TWC       0.048700
     15 H3           4.4810    -6.3860   -52.8480 hc         1 TWC       0.048700
     16 H4           5.6750    -4.5240   -50.7140 h1         1 TWC       0.067700
     17 H5           5.2900    -4.0420   -52.3680 h1         1 TWC       0.067700
     18 H6           1.5130    -3.0150   -49.4910 hc         1 TWC       0.114700
     19 H7           1.1450    -4.7410   -49.4550 hc         1 TWC       0.114700
@<TRIPOS>BOND
     1     1     4 1   
     2     1     8 2   
     3     2     4 1   
     4     2     6 2   
     5     2     9 1   
     6     3     8 1   
     7     3    10 1   
     8     3    11 1   
     9     3    12 1   
    10     4     7 1   
    11     5     7 1   
    12     5    13 1   
    13     5    14 1   
    14     5    15 1   
    15     7    16 1   
    16     7    17 1   
    17     8     9 1   
    18     9    18 1   
    19     9    19 1   
@<TRIPOS>SUBSTRUCTURE
     1 TWC         1 TEMP              0 ****  ****    0 ROOT
