@<TRIPOS>MOLECULE
TWC
   19    19     1     0     0
SMALL
No Charge or Current Charge


@<TRIPOS>ATOM
      1 N1           2.6610    -4.1880   -52.1660 n2         1 TWC      -0.344300
      2 C4           3.2140    -4.3330   -49.8810 c          1 TWC       0.550000
      3 C5           0.2280    -3.6380   -52.1430 c3         1 TWC       0.297700
      4 N            3.6360    -4.4200   -51.2210 n          1 TWC      -0.198800
      5 C            5.2480    -6.2040   -51.9490 c3         1 TWC      -0.114100
      6 O            3.8950    -4.4970   -48.8780 o          1 TWC      -0.496000
      7 C1           5.0390    -4.7280   -51.5640 c3         1 TWC       0.128000
      8 C2           1.5810    -3.9490   -51.5030 c2         1 TWC       0.195300
      9 C3           1.7450    -3.9990   -50.0030 c5         1 TWC      -0.227700
     10 F           -0.7070    -4.5490   -51.7860 f          1 TWC      -0.100333
     11 F1          -0.2300    -2.4240   -51.7590 f          1 TWC      -0.100333
     12 F2           0.2820    -3.6320   -53.4970 f          1 TWC      -0.100333
     13 H1           6.2990    -6.3860   -52.2030 hc         1 TWC       0.048700
     14 H2           4.9750    -6.8620   -51.1160 hc         1 TWC       0.048700
     15 H3           4.6320    -6.4670   -52.8170 hc         1 TWC       0.048700
     16 H4           5.6910    -4.4760   -50.7180 h1         1 TWC       0.067700
     17 H5           5.3370    -4.0920   -52.4080 h1         1 TWC       0.067700
     18 H6           1.5430    -3.0480   -49.5020 hc         1 TWC       0.114700
     19 H7           1.1510    -4.7790   -49.5170 hc         1 TWC       0.114700
@<TRIPOS>BOND
     1     1     4 1   
     2     1     8 2   
     3     2     4 1   
     4     2     6 2   
     5     2     9 1   
     6     3     8 1   
     7     3    10 1   
     8     3    11 1   
     9     3    12 1   
    10     4     7 1   
    11     5     7 1   
    12     5    13 1   
    13     5    14 1   
    14     5    15 1   
    15     7    16 1   
    16     7    17 1   
    17     8     9 1   
    18     9    18 1   
    19     9    19 1   
@<TRIPOS>SUBSTRUCTURE
     1 TWC         1 TEMP              0 ****  ****    0 ROOT
