@<TRIPOS>MOLECULE
TWD
   30    30     1     0     0
SMALL
No Charge or Current Charge


@<TRIPOS>ATOM
      1 C6         -58.7320    27.3820   -52.5280 c3         1 TWD       0.162600
      2 C5         -58.0050    28.6840   -52.0420 c6         1 TWD       0.171300
      3 C1         -55.7660    29.4920   -51.4950 c6         1 TWD       0.368300
      4 C2         -56.2360    30.1100   -50.1320 c6         1 TWD       0.164300
      5 C3         -57.7600    30.4740   -50.2190 c6         1 TWD       0.191300
      6 C4         -58.5780    29.2160   -50.6910 c6         1 TWD       0.130300
      7 O6         -58.1720    26.8210   -53.7330 oh         1 TWD      -0.713000
      8 O5         -56.5950    28.3830   -51.8860 os         1 TWD      -0.457000
      9 O1         -55.7840    30.4640   -52.5450 oh         1 TWD      -0.712000
     10 O2         -55.4530    31.3030   -49.8500 os         1 TWD      -0.578700
     11 O16        -54.6800    30.7690   -47.5760 o          1 TWD      -0.713200
     12 O17        -53.5220    32.4940   -48.9150 o          1 TWD      -0.713200
     13 O18        -53.3330    30.1100   -49.5320 o          1 TWD      -0.713200
     14 O3         -58.2350    30.9130   -48.9180 os         1 TWD      -0.581700
     15 O22        -58.4730    33.3070   -49.4430 o          1 TWD      -0.711533
     16 O23        -59.5000    32.3670   -47.3990 o          1 TWD      -0.711533
     17 O24        -60.3910    31.7670   -49.6250 o          1 TWD      -0.711533
     18 O4         -59.9970    29.4910   -50.8000 oh         1 TWD      -0.786000
     19 S15        -54.1320    31.1570   -48.8820 s6         1 TWD       1.501300
     20 S21        -59.2340    32.2100   -48.8340 s6         1 TWD       1.506300
     21 H61        -59.7920    27.6180   -52.6900 h1         1 TWD       0.024700
     22 H62        -58.6860    26.6430   -51.7160 h1         1 TWD       0.024700
     23 H5         -58.1310    29.4500   -52.8210 h1         1 TWD       0.067700
     24 H1         -54.7370    29.1230   -51.3660 h2         1 TWD       0.086700
     25 HO6        -56.1020    29.3670   -49.3310 h1         1 TWD       0.066700
     26 H3         -57.8760    31.2810   -50.9590 h1         1 TWD       0.072700
     27 H4         -58.4290    28.4280   -49.9380 h1         1 TWD       0.034700
     28 HO1        -55.3720    31.2600   -52.1390 ho         1 TWD       0.482000
     29 HO4        -60.1710    30.3550   -50.3090 ho         1 TWD       0.574000
     30 H6         -58.6600    25.9840   -53.9120 ho         1 TWD       0.473000
@<TRIPOS>BOND
     1     1     2 1   
     2     1     7 1   
     3     1    21 1   
     4     1    22 1   
     5     2     6 1   
     6     2     8 1   
     7     2    23 1   
     8     3     4 1   
     9     3     8 1   
    10     3     9 1   
    11     3    24 1   
    12     4     5 1   
    13     4    10 1   
    14     4    25 1   
    15     5     6 1   
    16     5    14 1   
    17     5    26 1   
    18     6    18 1   
    19     6    27 1   
    20     7    30 1   
    21     9    28 1   
    22    10    19 1   
    23    11    19 1   
    24    12    19 1   
    25    13    19 1   
    26    14    20 1   
    27    15    20 1   
    28    16    20 1   
    29    17    20 1   
    30    18    29 1   
@<TRIPOS>SUBSTRUCTURE
     1 TWD         1 TEMP              0 ****  ****    0 ROOT
