@<TRIPOS>MOLECULE
TWD
   30    30     1     0     0
SMALL
abcg2


@<TRIPOS>ATOM
      1 C6         -58.6620    27.3950   -52.4180 c3         1 TWD       0.162600
      2 C5         -57.9780    28.6960   -52.0460 c6         1 TWD       0.171300
      3 C1         -55.7940    29.4650   -51.5020 c6         1 TWD       0.368300
      4 C2         -56.2800    30.0880   -50.1880 c6         1 TWD       0.164300
      5 C3         -57.7490    30.4740   -50.2850 c6         1 TWD       0.191300
      6 C4         -58.5930    29.2980   -50.7800 c6         1 TWD       0.130300
      7 O6         -58.1600    26.9510   -53.6550 oh         1 TWD      -0.713000
      8 O5         -56.6050    28.3990   -51.8560 os         1 TWD      -0.457000
      9 O1         -55.7860    30.3970   -52.5440 oh         1 TWD      -0.712000
     10 O2         -55.5360    31.2620   -49.9090 os         1 TWD      -0.578700
     11 O16        -54.8270    30.8200   -47.5680 o          1 TWD      -0.713200
     12 O17        -53.7100    32.5020   -48.9780 o          1 TWD      -0.713200
     13 O18        -53.3940    30.0970   -49.4210 o          1 TWD      -0.713200
     14 O3         -58.1610    30.8520   -48.9730 os         1 TWD      -0.581700
     15 O22        -58.5190    33.2630   -49.4660 o          1 TWD      -0.711533
     16 O23        -59.1640    32.2530   -47.3090 o          1 TWD      -0.711533
     17 O24        -60.4390    31.7340   -49.3460 o          1 TWD      -0.711533
     18 O4         -59.9050    29.6730   -51.1020 oh         1 TWD      -0.786000
     19 S15        -54.2480    31.1510   -48.8700 s6         1 TWD       1.501300
     20 S21        -59.1470    32.1480   -48.7610 s6         1 TWD       1.506300
     21 H61        -59.7420    27.5720   -52.4590 h1         1 TWD       0.024700
     22 H62        -58.4860    26.6630   -51.6170 h1         1 TWD       0.024700
     23 H5         -58.1090    29.4140   -52.8650 h1         1 TWD       0.067700
     24 H1         -54.7960    29.0380   -51.3480 h2         1 TWD       0.086700
     25 HO6        -56.1650    29.3390   -49.3940 h1         1 TWD       0.066700
     26 H3         -57.8550    31.3100   -50.9870 h1         1 TWD       0.072700
     27 H4         -58.5790    28.5290   -49.9880 h1         1 TWD       0.034700
     28 HO1        -55.3080    31.1810   -52.2520 ho         1 TWD       0.482000
     29 HO4        -60.2290    30.3280   -50.4560 ho         1 TWD       0.574000
     30 H6         -58.6080    26.1320   -53.8830 ho         1 TWD       0.473000
@<TRIPOS>BOND
     1     1     2 1   
     2     1     7 1   
     3     1    21 1   
     4     1    22 1   
     5     2     6 1   
     6     2     8 1   
     7     2    23 1   
     8     3     4 1   
     9     3     8 1   
    10     3     9 1   
    11     3    24 1   
    12     4     5 1   
    13     4    10 1   
    14     4    25 1   
    15     5     6 1   
    16     5    14 1   
    17     5    26 1   
    18     6    18 1   
    19     6    27 1   
    20     7    30 1   
    21     9    28 1   
    22    10    19 1   
    23    11    19 1   
    24    12    19 1   
    25    13    19 1   
    26    14    20 1   
    27    15    20 1   
    28    16    20 1   
    29    17    20 1   
    30    18    29 1   
@<TRIPOS>SUBSTRUCTURE
     1 TWD         1 TEMP              0 ****  ****    0 ROOT
