@<TRIPOS>MOLECULE
TWE
   32    33     1     0     0
SMALL
No Charge or Current Charge


@<TRIPOS>ATOM
      1 C01        -20.2490    21.8290    -4.1160 c          1 TWE       0.581500
      2 C02        -19.0840    21.5180    -3.2130 ca         1 TWE      -0.186600
      3 C03        -17.8190    22.1030    -3.4310 ca         1 TWE      -0.065000
      4 C04        -16.7420    21.8040    -2.5790 ca         1 TWE      -0.093500
      5 C05        -16.8990    20.9030    -1.5040 ca         1 TWE      -0.116600
      6 C06        -15.7250    20.6200    -0.5870 c          1 TWE       0.610700
      7 C08        -14.7230    19.1440     1.2080 c6         1 TWE       0.091500
      8 C09        -13.4670    18.3520     0.7800 c6         1 TWE      -0.097900
      9 C10        -13.8640    17.0070     0.1170 c6         1 TWE      -0.002600
     10 C11        -12.6750    16.2440    -0.3240 c1         1 TWE       0.298900
     11 C13        -14.8460    17.2670    -1.0580 c6         1 TWE      -0.097900
     12 C14        -16.0690    18.0980    -0.6000 c6         1 TWE       0.091500
     13 C16        -18.1760    20.3400    -1.2750 ca         1 TWE      -0.093500
     14 C17        -19.2550    20.6390    -2.1250 ca         1 TWE      -0.065000
     15 N07        -15.6520    19.3660     0.0660 n          1 TWE      -0.399800
     16 N12        -11.7370    15.6630    -0.6970 n1         1 TWE      -0.454000
     17 O15        -14.9010    21.4960    -0.3510 o          1 TWE      -0.579100
     18 H1         -21.2080    21.3240    -3.8620 h4         1 TWE      -0.008800
     19 H4         -17.6660    22.7920    -4.2590 ha         1 TWE       0.128500
     20 H5         -15.7750    22.2680    -2.7640 ha         1 TWE       0.128000
     21 H6         -14.4220    20.1030     1.6550 h1         1 TWE       0.063450
     22 H7         -15.2560    18.5850     1.9910 h1         1 TWE       0.063450
     23 H8         -12.8300    18.1730     1.6580 hc         1 TWE       0.063450
     24 H9         -12.8760    18.9610     0.0810 hc         1 TWE       0.063450
     25 H10        -14.3640    16.3750     0.8650 hc         1 TWE       0.073700
     26 H11        -15.1900    16.3150    -1.4850 hc         1 TWE       0.063450
     27 H12        -14.3300    17.8040    -1.8660 hc         1 TWE       0.063450
     28 H13        -16.6920    18.2960    -1.4810 h1         1 TWE       0.063450
     29 H14        -16.6740    17.5070     0.1030 h1         1 TWE       0.063450
     30 H15        -18.3440    19.6820    -0.4260 ha         1 TWE       0.128000
     31 H16        -20.2270    20.1900    -1.9310 ha         1 TWE       0.128500
     32 O1         -20.1760    22.5870    -5.0780 o          1 TWE      -0.509100
@<TRIPOS>BOND
     1     1     2 1   
     2     1    18 1   
     3     1    32 2   
     4     2     3 ar  
     5     2    14 ar  
     6     3     4 ar  
     7     3    19 1   
     8     4     5 ar  
     9     4    20 1   
    10     5     6 1   
    11     5    13 ar  
    12     6    15 1   
    13     6    17 2   
    14     7     8 1   
    15     7    15 1   
    16     7    21 1   
    17     7    22 1   
    18     8     9 1   
    19     8    23 1   
    20     8    24 1   
    21     9    10 1   
    22     9    11 1   
    23     9    25 1   
    24    10    16 3   
    25    11    12 1   
    26    11    26 1   
    27    11    27 1   
    28    12    15 1   
    29    12    28 1   
    30    12    29 1   
    31    13    14 ar  
    32    13    30 1   
    33    14    31 1   
@<TRIPOS>SUBSTRUCTURE
     1 TWE         1 TEMP              0 ****  ****    0 ROOT
