@<TRIPOS>MOLECULE
TWE
   32    33     1     0     0
SMALL
abcg2


@<TRIPOS>ATOM
      1 C01        -19.9330    21.6650    -4.2170 c          1 TWE       0.581500
      2 C02        -18.8920    21.3770    -3.2150 ca         1 TWE      -0.186600
      3 C03        -17.5490    21.6500    -3.4690 ca         1 TWE      -0.065000
      4 C04        -16.5950    21.3760    -2.5080 ca         1 TWE      -0.093500
      5 C05        -16.9690    20.8010    -1.2940 ca         1 TWE      -0.116600
      6 C06        -15.9230    20.5920    -0.2400 c          1 TWE       0.610700
      7 C08        -14.7590    19.0700     1.2530 c6         1 TWE       0.091500
      8 C09        -13.5050    18.4520     0.6510 c6         1 TWE      -0.097900
      9 C10        -13.8810    17.1800    -0.1210 c6         1 TWE      -0.002600
     10 C11        -12.7120    16.5860    -0.7570 c1         1 TWE       0.298900
     11 C13        -14.9730    17.4710    -1.1580 c6         1 TWE      -0.097900
     12 C14        -16.1670    18.1390    -0.4870 c6         1 TWE       0.091500
     13 C16        -18.3090    20.5280    -1.0380 ca         1 TWE      -0.093500
     14 C17        -19.2670    20.8230    -1.9940 ca         1 TWE      -0.065000
     15 N07        -15.7520    19.3370     0.2240 n          1 TWE      -0.399800
     16 N12        -11.7930    16.1230    -1.2720 n1         1 TWE      -0.454000
     17 O15        -15.3030    21.5590     0.1750 o          1 TWE      -0.579100
     18 H1         -20.9590    21.4110    -3.8970 h4         1 TWE      -0.008800
     19 H4         -17.2520    22.0810    -4.4170 ha         1 TWE       0.128500
     20 H5         -15.5540    21.5980    -2.7030 ha         1 TWE       0.128000
     21 H6         -14.5170    19.9900     1.7790 h1         1 TWE       0.063450
     22 H7         -15.2030    18.3820     1.9780 h1         1 TWE       0.063450
     23 H8         -12.7960    18.2170     1.4460 hc         1 TWE       0.063450
     24 H9         -13.0240    19.1680    -0.0210 hc         1 TWE       0.063450
     25 H10        -14.2630    16.4390     0.5910 hc         1 TWE       0.073700
     26 H11        -15.2990    16.5460    -1.6360 hc         1 TWE       0.063450
     27 H12        -14.5790    18.1270    -1.9390 hc         1 TWE       0.063450
     28 H13        -16.9190    18.3720    -1.2360 h1         1 TWE       0.063450
     29 H14        -16.6280    17.4510     0.2270 h1         1 TWE       0.063450
     30 H15        -18.6050    20.0880    -0.0940 ha         1 TWE       0.128000
     31 H16        -20.3110    20.6170    -1.7920 ha         1 TWE       0.128500
     32 O1         -19.7190    22.1390    -5.3080 o          1 TWE      -0.509100
@<TRIPOS>BOND
     1     1     2 1   
     2     1    18 1   
     3     1    32 2   
     4     2     3 ar  
     5     2    14 ar  
     6     3     4 ar  
     7     3    19 1   
     8     4     5 ar  
     9     4    20 1   
    10     5     6 1   
    11     5    13 ar  
    12     6    15 1   
    13     6    17 2   
    14     7     8 1   
    15     7    15 1   
    16     7    21 1   
    17     7    22 1   
    18     8     9 1   
    19     8    23 1   
    20     8    24 1   
    21     9    10 1   
    22     9    11 1   
    23     9    25 1   
    24    10    16 3   
    25    11    12 1   
    26    11    26 1   
    27    11    27 1   
    28    12    15 1   
    29    12    28 1   
    30    12    29 1   
    31    13    14 ar  
    32    13    30 1   
    33    14    31 1   
@<TRIPOS>SUBSTRUCTURE
     1 TWE         1 TEMP              0 ****  ****    0 ROOT
