@<TRIPOS>MOLECULE
TWH
   35    37     1     0     0
SMALL
No Charge or Current Charge


@<TRIPOS>ATOM
      1 C1           4.1310    -4.9670    13.8560 c3         1 TWH      -0.099100
      2 N1           4.4910    -6.1280    16.0570 nh         1 TWH      -0.703400
      3 C2           5.1100    -5.7240    14.7730 c5         1 TWH       0.239500
      4 N2           8.0080    -5.1940    17.5660 n1         1 TWH      -0.509000
      5 C3           5.5490    -7.1080    14.2270 c5         1 TWH      -0.090400
      6 N3           6.8370    -2.6000    19.8230 nv         1 TWH      -1.069900
      7 C4           6.1050    -7.7710    15.5140 c5         1 TWH      -0.097400
      8 N4           4.7380    -1.7840    20.2120 nb         1 TWH      -0.290000
      9 C5           4.9880    -7.4450    16.5430 c5         1 TWH       0.221800
     10 N5           2.7900    -2.6400    19.0530 nb         1 TWH      -0.230000
     11 C6           4.4630    -5.1320    17.0160 cc         1 TWH       0.263900
     12 N6           3.3010    -4.4620    17.4310 na         1 TWH      -0.207400
     13 C7           5.5050    -4.5580    17.7410 cd         1 TWH      -0.122900
     14 C8           6.8740    -4.9220    17.6260 ch         1 TWH       0.337700
     15 C9           4.9430    -3.5320    18.6070 ca         1 TWH      -0.203800
     16 C10          5.5100    -2.6490    19.5380 ca         1 TWH       0.423900
     17 C11          3.4120    -1.8220    19.9360 ca         1 TWH       0.171900
     18 C12          3.5860    -3.5010    18.3890 ca         1 TWH       0.153500
     19 C13          1.9260    -4.6780    16.9510 c3         1 TWH       0.060900
     20 H1           3.8320    -4.0130    14.3060 hc         1 TWH       0.048033
     21 H2           4.5940    -4.7490    12.8860 hc         1 TWH       0.048033
     22 H3           3.2230    -5.5540    13.6730 hc         1 TWH       0.048033
     23 H4           5.9900    -5.0850    14.9380 h1         1 TWH       0.055700
     24 H5           4.7000    -7.6720    13.8210 hc         1 TWH       0.058200
     25 H6           6.3010    -7.0240    13.4350 hc         1 TWH       0.058200
     26 H7           7.1320    -2.0870    20.6500 hn         1 TWH       0.499500
     27 H8           7.4380    -3.3610    19.5160 hn         1 TWH       0.499500
     28 H9           6.2650    -8.8490    15.4030 hc         1 TWH       0.057700
     29 H10          7.0630    -7.3280    15.8080 hc         1 TWH       0.057700
     30 H11          4.1840    -8.1920    16.5020 h1         1 TWH       0.048700
     31 H12          5.3710    -7.4190    17.5730 h1         1 TWH       0.048700
     32 H13          2.7800    -1.1210    20.4800 h5         1 TWH       0.045100
     33 H14          1.5990    -3.8060    16.3710 h1         1 TWH       0.058367
     34 H15          1.8830    -5.5690    16.3140 h1         1 TWH       0.058367
     35 H16          1.2530    -4.8170    17.8060 h1         1 TWH       0.058367
@<TRIPOS>BOND
     1     1     3 1   
     2     1    20 1   
     3     1    21 1   
     4     1    22 1   
     5     2     3 1   
     6     2     9 1   
     7     2    11 1   
     8     3     5 1   
     9     3    23 1   
    10     4    14 3   
    11     5     7 1   
    12     5    24 1   
    13     5    25 1   
    14     6    16 1   
    15     6    26 1   
    16     6    27 1   
    17     7     9 1   
    18     7    28 1   
    19     7    29 1   
    20     8    16 ar  
    21     8    17 ar  
    22     9    30 1   
    23     9    31 1   
    24    10    17 ar  
    25    10    18 ar  
    26    11    12 1   
    27    11    13 2   
    28    12    18 1   
    29    12    19 1   
    30    13    14 1   
    31    13    15 1   
    32    15    16 ar  
    33    15    18 ar  
    34    17    32 1   
    35    19    33 1   
    36    19    34 1   
    37    19    35 1   
@<TRIPOS>SUBSTRUCTURE
     1 TWH         1 TEMP              0 ****  ****    0 ROOT
