@<TRIPOS>MOLECULE
TWH
   35    37     1     0     0
SMALL
abcg2


@<TRIPOS>ATOM
      1 C1           5.4250    -4.7450    14.0430 c3         1 TWH      -0.099100
      2 N1           4.6440    -5.9730    16.0520 nh         1 TWH      -0.703400
      3 C2           5.6210    -5.9400    14.9560 c5         1 TWH       0.239500
      4 N2           8.0470    -3.9370    16.7320 n1         1 TWH      -0.509000
      5 C3           5.3850    -7.2810    14.2700 c5         1 TWH      -0.090400
      6 N3           6.5900    -1.6680    19.2430 nv         1 TWH      -1.069900
      7 C4           5.0290    -8.2040    15.4240 c5         1 TWH      -0.097400
      8 N4           4.4950    -1.7710    20.1780 nb         1 TWH      -0.290000
      9 C5           4.1260    -7.3310    16.2850 c5         1 TWH       0.221800
     10 N5           2.8130    -3.3090    19.5010 nb         1 TWH      -0.230000
     11 C6           4.6120    -5.0210    17.0080 cc         1 TWH       0.263900
     12 N6           3.4770    -4.7980    17.7470 na         1 TWH      -0.207400
     13 C7           5.5900    -4.1120    17.4220 cd         1 TWH      -0.122900
     14 C8           6.9290    -4.0440    17.0170 ch         1 TWH       0.337700
     15 C9           4.9990    -3.3130    18.4610 ca         1 TWH      -0.203800
     16 C10          5.3810    -2.2510    19.2970 ca         1 TWH       0.423900
     17 C11          3.2850    -2.3110    20.2270 ca         1 TWH       0.171900
     18 C12          3.7040    -3.7790    18.6350 ca         1 TWH       0.153500
     19 C13          2.1680    -5.3650    17.4990 c3         1 TWH       0.060900
     20 H1           5.5770    -3.7950    14.5570 hc         1 TWH       0.048033
     21 H2           6.1390    -4.7870    13.2200 hc         1 TWH       0.048033
     22 H3           4.4190    -4.7470    13.6220 hc         1 TWH       0.048033
     23 H4           6.6420    -5.9370    15.3540 h1         1 TWH       0.055700
     24 H5           4.5470    -7.2000    13.5710 hc         1 TWH       0.058200
     25 H6           6.2610    -7.6030    13.7080 hc         1 TWH       0.058200
     26 H7           6.8320    -0.9900    19.9450 hn         1 TWH       0.499500
     27 H8           7.3440    -2.0650    18.7120 hn         1 TWH       0.499500
     28 H9           4.5280    -9.1190    15.1100 hc         1 TWH       0.057700
     29 H10          5.9280    -8.4850    15.9770 hc         1 TWH       0.057700
     30 H11          3.0880    -7.4230    15.9600 h1         1 TWH       0.048700
     31 H12          4.1730    -7.5940    17.3430 h1         1 TWH       0.048700
     32 H13          2.6040    -1.8790    20.9530 h5         1 TWH       0.045100
     33 H14          1.4260    -4.7190    17.9600 h1         1 TWH       0.058367
     34 H15          1.9780    -5.4060    16.4290 h1         1 TWH       0.058367
     35 H16          2.0690    -6.3620    17.9220 h1         1 TWH       0.058367
@<TRIPOS>BOND
     1     1     3 1   
     2     1    20 1   
     3     1    21 1   
     4     1    22 1   
     5     2     3 1   
     6     2     9 1   
     7     2    11 1   
     8     3     5 1   
     9     3    23 1   
    10     4    14 3   
    11     5     7 1   
    12     5    24 1   
    13     5    25 1   
    14     6    16 1   
    15     6    26 1   
    16     6    27 1   
    17     7     9 1   
    18     7    28 1   
    19     7    29 1   
    20     8    16 ar  
    21     8    17 ar  
    22     9    30 1   
    23     9    31 1   
    24    10    17 ar  
    25    10    18 ar  
    26    11    12 1   
    27    11    13 2   
    28    12    18 1   
    29    12    19 1   
    30    13    14 1   
    31    13    15 1   
    32    15    16 ar  
    33    15    18 ar  
    34    17    32 1   
    35    19    33 1   
    36    19    34 1   
    37    19    35 1   
@<TRIPOS>SUBSTRUCTURE
     1 TWH         1 TEMP              0 ****  ****    0 ROOT
