@<TRIPOS>MOLECULE
TWI
   49    53     1     0     0
SMALL
abcg2


@<TRIPOS>ATOM
      1 C20        -21.8530    10.8690    20.4710 c          1 TWI       0.582200
      2 C18        -24.5370    11.5260    17.2590 ca         1 TWI      -0.095000
      3 C16        -27.3580     9.5590    12.3610 ca         1 TWI       0.625200
      4 C15        -25.1910     9.0020    12.3610 ca         1 TWI       0.403900
      5 C14        -24.9890     9.5260    13.6160 ca         1 TWI      -0.250000
      6 C6         -23.1990    12.4700    19.1450 cc         1 TWI       0.190800
      7 C4         -22.5910    16.2080    17.0830 cx         1 TWI      -0.116900
      8 C2         -22.8940    14.9160    19.2940 c3         1 TWI       0.207500
      9 C1         -23.1100    13.9340    21.6240 c3         1 TWI       0.110600
     10 C11        -24.3580     9.2130    16.6830 ca         1 TWI      -0.086000
     11 C12        -24.9340    10.4650    16.4670 ca         1 TWI       0.256000
     12 O1         -21.1430    10.6420    21.4420 o          1 TWI      -0.524000
     13 C19        -22.4140    12.1800    20.2220 cd         1 TWI      -0.105100
     14 O          -22.0700    13.0980    21.1700 os         1 TWI      -0.301100
     15 N          -23.6440    13.7380    18.8860 nu         1 TWI      -0.805200
     16 C3         -23.2710    16.0760    18.4140 cx         1 TWI      -0.160700
     17 C5         -22.2900    17.1800    18.1790 cx         1 TWI      -0.116900
     18 C          -23.1640    15.1920    20.7710 c3         1 TWI       0.154000
     19 F1         -24.3820    15.7790    20.9440 f          1 TWI      -0.111500
     20 F          -22.2500    16.1030    21.2170 f          1 TWI      -0.111500
     21 N1         -22.1440     9.8940    19.5400 n          1 TWI      -0.283000
     22 C8         -23.0400    10.0990    18.5110 ca         1 TWI       0.099600
     23 C10        -23.4180     9.0410    17.6740 ca         1 TWI      -0.142000
     24 C7         -23.6030    11.3690    18.2890 ca         1 TWI      -0.106800
     25 N2         -25.9660    10.6590    15.5370 nu         1 TWI      -0.980000
     26 C13        -26.0690    10.1100    14.3030 ca         1 TWI       0.401000
     27 C17        -27.2960    10.1240    13.6200 ca         1 TWI      -0.083000
     28 CL         -28.7070    10.8100    14.3300 cl         1 TWI      -0.166000
     29 N3         -26.3660     9.0080    11.7270 nb         1 TWI      -0.725000
     30 H1         -25.0050    12.4840    17.0720 ha         1 TWI       0.118000
     31 H2         -24.3600     8.5570    11.8280 h4         1 TWI       0.029100
     32 H3         -24.0000     9.5000    14.0510 ha         1 TWI       0.138000
     33 H4         -23.1870    16.5410    16.2440 hc         1 TWI       0.079200
     34 H5         -21.8310    15.4780    16.8320 hc         1 TWI       0.079200
     35 H6         -21.8170    14.7380    19.1830 h1         1 TWI       0.082700
     36 H7         -22.8960    14.1980    22.6620 h1         1 TWI       0.084200
     37 H8         -24.0760    13.4230    21.5990 h1         1 TWI       0.084200
     38 H9         -20.8250     8.6250    20.5180 h1         1 TWI       0.057367
     39 H10        -22.2950     7.8310    19.9510 h1         1 TWI       0.057367
     40 H11        -21.0240     8.2820    18.7990 h1         1 TWI       0.057367
     41 H12        -24.6620     8.3550    16.0980 ha         1 TWI       0.132000
     42 H13        -24.1210    13.8680    18.0100 hn         1 TWI       0.482000
     43 H14        -24.3190    16.3570    18.4450 hc         1 TWI       0.098700
     44 H15        -21.3220    17.1160    18.6600 hc         1 TWI       0.079200
     45 H16        -22.6790    18.1860    18.0980 hc         1 TWI       0.079200
     46 H17        -23.0070     8.0530    17.8130 ha         1 TWI       0.129000
     47 H18        -26.7360    11.2320    15.8480 hn         1 TWI       0.512000
     48 C9         -21.5430     8.5820    19.7080 c3         1 TWI       0.071300
     49 F2         -28.5330     9.5640    11.7370 f          1 TWI      -0.211200
@<TRIPOS>BOND
     1     1    12 2   
     2     1    13 1   
     3     1    21 1   
     4     2    11 ar  
     5     2    24 ar  
     6     2    30 1   
     7     3    27 ar  
     8     3    29 ar  
     9     3    49 1   
    10     4     5 ar  
    11     4    29 ar  
    12     4    31 1   
    13     5    26 ar  
    14     5    32 1   
    15     6    13 2   
    16     6    15 1   
    17     6    24 1   
    18     7    16 1   
    19     7    17 1   
    20     7    33 1   
    21     7    34 1   
    22     8    15 1   
    23     8    16 1   
    24     8    18 1   
    25     8    35 1   
    26     9    14 1   
    27     9    18 1   
    28     9    36 1   
    29     9    37 1   
    30    10    11 ar  
    31    10    23 ar  
    32    10    41 1   
    33    11    25 1   
    34    13    14 1   
    35    15    42 1   
    36    16    17 1   
    37    16    43 1   
    38    17    44 1   
    39    17    45 1   
    40    18    19 1   
    41    18    20 1   
    42    21    22 1   
    43    21    48 1   
    44    22    23 ar  
    45    22    24 ar  
    46    23    46 1   
    47    25    26 1   
    48    25    47 1   
    49    26    27 ar  
    50    27    28 1   
    51    38    48 1   
    52    39    48 1   
    53    40    48 1   
@<TRIPOS>SUBSTRUCTURE
     1 TWI         1 TEMP              0 ****  ****    0 ROOT
