@<TRIPOS>MOLECULE
TWI
   49    53     1     0     0
SMALL
No Charge or Current Charge


@<TRIPOS>ATOM
      1 C20        -21.9150    10.8010    20.6300 c          1 TWI       0.582200
      2 C18        -24.5490    11.5020    17.3120 ca         1 TWI      -0.095000
      3 C16        -27.5740     9.5860    12.3720 ca         1 TWI       0.625200
      4 C15        -25.4050     8.8260    12.2610 ca         1 TWI       0.403900
      5 C14        -25.1060     9.3930    13.5040 ca         1 TWI      -0.250000
      6 C6         -23.2960    12.4450    19.2680 cc         1 TWI       0.190800
      7 C4         -22.3650    16.1500    17.0790 cx         1 TWI      -0.116900
      8 C2         -22.9280    14.9210    19.3550 c3         1 TWI       0.207500
      9 C1         -23.4630    14.0420    21.7280 c3         1 TWI       0.110600
     10 C11        -24.2700     9.2050    16.6180 ca         1 TWI      -0.086000
     11 C12        -24.8720    10.4570    16.4330 ca         1 TWI       0.256000
     12 O1         -21.2740    10.5440    21.6440 o          1 TWI      -0.524000
     13 C19        -22.5690    12.1260    20.4180 cd         1 TWI      -0.105100
     14 O          -22.4600    13.0290    21.4720 os         1 TWI      -0.301100
     15 N          -23.6760    13.7330    18.9320 nu         1 TWI      -0.805200
     16 C3         -23.1730    16.0500    18.3540 cx         1 TWI      -0.160700
     17 C5         -22.1700    17.1690    18.1790 cx         1 TWI      -0.116900
     18 C          -23.2480    15.2860    20.8320 c3         1 TWI       0.154000
     19 F1         -24.3660    16.0510    20.9000 f          1 TWI      -0.111500
     20 F          -22.2380    16.0330    21.3380 f          1 TWI      -0.111500
     21 N1         -22.0520     9.8690    19.5810 n          1 TWI      -0.283000
     22 C8         -22.9300    10.0930    18.4690 ca         1 TWI       0.099600
     23 C10        -23.3250     9.0190    17.6380 ca         1 TWI      -0.142000
     24 C7         -23.5860    11.3380    18.3410 ca         1 TWI      -0.106800
     25 N2         -25.8400    10.6680    15.4440 nu         1 TWI      -0.980000
     26 C13        -26.1060    10.0740    14.2060 ca         1 TWI       0.401000
     27 C17        -27.3760    10.1930    13.6230 ca         1 TWI      -0.083000
     28 Cl         -28.6900    11.0700    14.4340 cl         1 TWI      -0.166000
     29 N3         -26.6230     8.9110    11.6920 nb         1 TWI      -0.725000
     30 H1         -25.0740    12.4440    17.1880 ha         1 TWI       0.118000
     31 H2         -24.6410     8.2920    11.6980 h4         1 TWI       0.029100
     32 H3         -24.0990     9.3150    13.8960 ha         1 TWI       0.138000
     33 H4         -22.8800    16.4710    16.1760 hc         1 TWI       0.079200
     34 H5         -21.5730    15.4230    16.9160 hc         1 TWI       0.079200
     35 H6         -21.8550    14.6780    19.3180 h1         1 TWI       0.082700
     36 H7         -23.4090    14.3610    22.7760 h1         1 TWI       0.084200
     37 H8         -24.4700    13.6350    21.5660 h1         1 TWI       0.084200
     38 H9         -20.3080     8.8040    20.2340 h1         1 TWI       0.057367
     39 H10        -21.7670     7.8040    19.9900 h1         1 TWI       0.057367
     40 H11        -20.8390     8.4260    18.5900 h1         1 TWI       0.057367
     41 H12        -24.5570     8.3620    15.9970 ha         1 TWI       0.132000
     42 H13        -24.1480    13.8130    18.0340 hn         1 TWI       0.482000
     43 H14        -24.2230    16.3290    18.2860 hc         1 TWI       0.098700
     44 H15        -21.2450    17.1240    18.7500 hc         1 TWI       0.079200
     45 H16        -22.5540    18.1730    18.0160 hc         1 TWI       0.079200
     46 H17        -22.9130     8.0230    17.7710 ha         1 TWI       0.129000
     47 H18        -26.5220    11.3910    15.6800 hn         1 TWI       0.512000
     48 C9         -21.1930     8.6550    19.6030 c3         1 TWI       0.071300
     49 F2         -28.7740     9.6500    11.7530 f          1 TWI      -0.211200
@<TRIPOS>BOND
     1     1    12 2   
     2     1    13 1   
     3     1    21 1   
     4     2    11 ar  
     5     2    24 ar  
     6     2    30 1   
     7     3    27 ar  
     8     3    29 ar  
     9     3    49 1   
    10     4     5 ar  
    11     4    29 ar  
    12     4    31 1   
    13     5    26 ar  
    14     5    32 1   
    15     6    13 2   
    16     6    15 1   
    17     6    24 1   
    18     7    16 1   
    19     7    17 1   
    20     7    33 1   
    21     7    34 1   
    22     8    15 1   
    23     8    16 1   
    24     8    18 1   
    25     8    35 1   
    26     9    14 1   
    27     9    18 1   
    28     9    36 1   
    29     9    37 1   
    30    10    11 ar  
    31    10    23 ar  
    32    10    41 1   
    33    11    25 1   
    34    13    14 1   
    35    15    42 1   
    36    16    17 1   
    37    16    43 1   
    38    17    44 1   
    39    17    45 1   
    40    18    19 1   
    41    18    20 1   
    42    21    22 1   
    43    21    48 1   
    44    22    23 ar  
    45    22    24 ar  
    46    23    46 1   
    47    25    26 1   
    48    25    47 1   
    49    26    27 ar  
    50    27    28 1   
    51    38    48 1   
    52    39    48 1   
    53    40    48 1   
@<TRIPOS>SUBSTRUCTURE
     1 TWI         1 TEMP              0 ****  ****    0 ROOT
