@<TRIPOS>MOLECULE
TWJ
   24    24     1     0     0
SMALL
No Charge or Current Charge


@<TRIPOS>ATOM
      1 S1          20.4810    39.6780    33.2020 sh         1 TWJ      -0.349800
      2 C1          19.5340    38.0790    33.4060 c6         1 TWJ       0.315300
      3 O5          20.0810    37.1140    32.4860 os         1 TWJ      -0.399000
      4 C5          19.5230    35.7880    32.6740 c6         1 TWJ       0.163300
      5 C6          20.3130    34.7740    31.7840 c3         1 TWJ       0.173600
      6 O6          21.7230    34.7270    32.0900 oh         1 TWJ      -0.718000
      7 C4          17.9830    35.7780    32.3880 c6         1 TWJ       0.160300
      8 O4          17.6710    35.9640    30.9960 oh         1 TWJ      -0.693000
      9 C3          17.2730    36.8940    33.2320 c6         1 TWJ       0.092300
     10 O3          15.8960    37.0280    32.8100 oh         1 TWJ      -0.668000
     11 C2          17.9970    38.2820    33.1560 c6         1 TWJ       0.131300
     12 O2          17.6980    38.9090    31.8900 oh         1 TWJ      -0.677000
     13 H1          19.6930    37.7290    34.4370 h2         1 TWJ       0.046700
     14 H5          19.6810    35.4940    33.7220 h1         1 TWJ       0.042700
     15 H61         20.1670    35.0520    30.7310 h1         1 TWJ       0.039700
     16 H62         19.8660    33.7800    31.9220 h1         1 TWJ       0.039700
     17 HO6         22.1410    34.1270    31.4280 ho         1 TWJ       0.506000
     18 H4          17.5860    34.8060    32.7180 h1         1 TWJ       0.038700
     19 HO4         16.7370    36.2830    31.0120 ho         1 TWJ       0.516000
     20 H3          17.3040    36.5670    34.2820 h1         1 TWJ       0.039700
     21 HO3         15.3480    37.1290    33.6230 ho         1 TWJ       0.455000
     22 H2          17.6070    38.9110    33.9700 h1         1 TWJ       0.039700
     23 HO2         16.7780    38.6170    31.6910 ho         1 TWJ       0.512000
     24 HS1         21.6970    39.1220    33.4110 hs         1 TWJ       0.193800
@<TRIPOS>BOND
     1     1     2 1   
     2     1    24 1   
     3     2     3 1   
     4     2    11 1   
     5     2    13 1   
     6     3     4 1   
     7     4     5 1   
     8     4     7 1   
     9     4    14 1   
    10     5     6 1   
    11     5    15 1   
    12     5    16 1   
    13     6    17 1   
    14     7     8 1   
    15     7     9 1   
    16     7    18 1   
    17     8    19 1   
    18     9    10 1   
    19     9    11 1   
    20     9    20 1   
    21    10    21 1   
    22    11    12 1   
    23    11    22 1   
    24    12    23 1   
@<TRIPOS>SUBSTRUCTURE
     1 TWJ         1 TEMP              0 ****  ****    0 ROOT
