@<TRIPOS>MOLECULE
TWJ
   24    24     1     0     0
SMALL
bcc


@<TRIPOS>ATOM
      1 S1          20.3450    39.6200    33.0170 sh         1 TWJ      -0.301900
      2 C1          19.5320    38.0290    33.3190 c6         1 TWJ       0.244200
      3 O5          20.0330    37.0890    32.4100 os         1 TWJ      -0.352600
      4 C5          19.4920    35.7980    32.6220 c6         1 TWJ       0.140100
      5 C6          20.2340    34.8200    31.7360 c3         1 TWJ       0.150400
      6 O6          21.5660    34.7310    32.1880 oh         1 TWJ      -0.595800
      7 C4          17.9890    35.7860    32.3780 c6         1 TWJ       0.137100
      8 O4          17.7440    35.9920    31.0110 oh         1 TWJ      -0.570800
      9 C3          17.3440    36.8450    33.2710 c6         1 TWJ       0.069100
     10 O3          15.9820    36.9370    32.9180 oh         1 TWJ      -0.605800
     11 C2          18.0280    38.2150    33.1710 c6         1 TWJ       0.108100
     12 O2          17.7830    38.8650    31.9550 oh         1 TWJ      -0.554800
     13 H1          19.7440    37.7240    34.3520 h2         1 TWJ       0.046700
     14 H5          19.6480    35.4950    33.6700 h1         1 TWJ       0.042700
     15 H61         20.1810    35.1500    30.6920 h1         1 TWJ       0.039700
     16 H62         19.7190    33.8530    31.7970 h1         1 TWJ       0.039700
     17 HO6         22.0300    34.1080    31.6230 ho         1 TWJ       0.407000
     18 H4          17.6110    34.8040    32.7020 h1         1 TWJ       0.038700
     19 HO4         16.7910    35.9860    30.8700 ho         1 TWJ       0.417000
     20 H3          17.4600    36.5010    34.3080 h1         1 TWJ       0.039700
     21 HO3         15.5020    37.3820    33.6250 ho         1 TWJ       0.416000
     22 H2          17.6850    38.8240    34.0220 h1         1 TWJ       0.039700
     23 HO2         16.8550    38.7320    31.7280 ho         1 TWJ       0.413000
     24 HS1         21.4780    39.3460    33.6740 hs         1 TWJ       0.193800
@<TRIPOS>BOND
     1     1     2 1   
     2     1    24 1   
     3     2     3 1   
     4     2    11 1   
     5     2    13 1   
     6     3     4 1   
     7     4     5 1   
     8     4     7 1   
     9     4    14 1   
    10     5     6 1   
    11     5    15 1   
    12     5    16 1   
    13     6    17 1   
    14     7     8 1   
    15     7     9 1   
    16     7    18 1   
    17     8    19 1   
    18     9    10 1   
    19     9    11 1   
    20     9    20 1   
    21    10    21 1   
    22    11    12 1   
    23    11    22 1   
    24    12    23 1   
@<TRIPOS>SUBSTRUCTURE
     1 TWJ         1 TEMP              0 ****  ****    0 ROOT
