@<TRIPOS>MOLECULE
TWL
   28    29     1     0     0
SMALL
No Charge or Current Charge


@<TRIPOS>ATOM
      1 C01          4.8880     0.9630     0.9970 c3         1 TWL      -0.097100
      2 C02          4.0960     0.3080    -0.1450 c3         1 TWL       0.166600
      3 O03          2.7110     0.3000     0.2410 os         1 TWL      -0.451100
      4 C04          1.8010    -0.2430    -0.6300 c          1 TWL       0.595100
      5 C05          0.3510    -0.2000    -0.1170 c6         1 TWL      -0.121700
      6 C06         -0.2660    -1.6070     0.1490 c6         1 TWL      -0.060400
      7 C07         -1.6300    -1.5120     0.8900 c6         1 TWL      -0.010100
      8 C08         -2.4590    -0.3980     0.2980 cc         1 TWL      -0.147300
      9 C09         -1.9970     0.6090    -0.4900 cd         1 TWL      -0.206300
     10 C10         -0.5590     0.7630    -0.9320 c6         1 TWL       0.021900
     11 C11         -3.0940     1.4370    -0.8090 cd         1 TWL       0.251900
     12 N12         -4.2200     1.0100    -0.2600 nc         1 TWL      -0.519800
     13 N13         -3.8190    -0.1310     0.4290 na         1 TWL       0.000800
     14 O14          2.0980    -0.7200    -1.7170 o          1 TWL      -0.490000
     15 H011         5.9560     0.9940     0.7490 hc         1 TWL       0.046700
     16 H012         4.5450     1.9910     1.1650 hc         1 TWL       0.046700
     17 H013         4.7670     0.3950     1.9270 hc         1 TWL       0.046700
     18 H021         4.2420     0.8830    -1.0690 h1         1 TWL       0.048200
     19 H022         4.4640    -0.7140    -0.3070 h1         1 TWL       0.048200
     20 H05          0.4330     0.2650     0.8750 hc         1 TWL       0.078700
     21 H061        -0.4080    -2.1240    -0.8100 hc         1 TWL       0.060700
     22 H062         0.4290    -2.2250     0.7340 hc         1 TWL       0.060700
     23 H101        -0.2180     1.8010    -0.8100 hc         1 TWL       0.057700
     24 H102        -0.4780     0.5310    -2.0030 hc         1 TWL       0.057700
     25 H071        -2.1550    -2.4750     0.8310 hc         1 TWL       0.054700
     26 H072        -1.4530    -1.3190     1.9570 hc         1 TWL       0.054700
     27 H13         -4.4870    -0.6860     0.9630 hn         1 TWL       0.369000
     28 H11         -3.1020     2.3310    -1.4200 h4         1 TWL       0.037100
@<TRIPOS>BOND
     1     1     2 1   
     2     1    15 1   
     3     1    16 1   
     4     1    17 1   
     5     2     3 1   
     6     2    18 1   
     7     2    19 1   
     8     3     4 1   
     9     4     5 1   
    10     4    14 2   
    11     5     6 1   
    12     5    10 1   
    13     5    20 1   
    14     6     7 1   
    15     6    21 1   
    16     6    22 1   
    17     7     8 1   
    18     7    25 1   
    19     7    26 1   
    20     8     9 2   
    21     8    13 1   
    22     9    10 1   
    23     9    11 1   
    24    10    23 1   
    25    10    24 1   
    26    11    12 2   
    27    11    28 1   
    28    12    13 1   
    29    13    27 1   
@<TRIPOS>SUBSTRUCTURE
     1 TWL         1 TEMP              0 ****  ****    0 ROOT
