@<TRIPOS>MOLECULE
TWL
   28    29     1     0     0
SMALL
abcg2


@<TRIPOS>ATOM
      1 C01          4.5740     1.5460     0.4770 c3         1 TWL      -0.097100
      2 C02          3.9660     0.2960    -0.1130 c3         1 TWL       0.166600
      3 O03          2.5710     0.2870     0.2270 os         1 TWL      -0.451100
      4 C04          1.8260    -0.7200    -0.2060 c          1 TWL       0.595100
      5 C05          0.3820    -0.5580     0.2080 c6         1 TWL      -0.121700
      6 C06         -0.4410    -1.8020    -0.1260 c6         1 TWL      -0.060400
      7 C07         -1.8470    -1.7190     0.4710 c6         1 TWL      -0.010100
      8 C08         -2.4080    -0.3730     0.1800 cc         1 TWL      -0.147300
      9 C09         -1.6890     0.7280    -0.2250 cd         1 TWL      -0.206300
     10 C10         -0.2120     0.7090    -0.4410 c6         1 TWL       0.021900
     11 C11         -2.6540     1.7430    -0.3590 cd         1 TWL       0.251900
     12 N12         -3.8630     1.3010    -0.0600 nc         1 TWL      -0.519800
     13 N13         -3.6910     0.0210     0.2630 na         1 TWL       0.000800
     14 O14          2.2630    -1.6350    -0.8600 o          1 TWL      -0.490000
     15 H011         5.6380     1.5690     0.2450 hc         1 TWL       0.046700
     16 H012         4.1210     2.4460     0.0630 hc         1 TWL       0.046700
     17 H013         4.4690     1.5700     1.5620 hc         1 TWL       0.046700
     18 H021         4.0810     0.2830    -1.1980 h1         1 TWL       0.048200
     19 H022         4.4470    -0.5980     0.2870 h1         1 TWL       0.048200
     20 H05          0.3690    -0.4110     1.2960 hc         1 TWL       0.078700
     21 H061        -0.5120    -1.9150    -1.2110 hc         1 TWL       0.060700
     22 H062         0.0540    -2.6970     0.2540 hc         1 TWL       0.060700
     23 H101         0.2540     1.6000    -0.0190 hc         1 TWL       0.057700
     24 H102         0.0160     0.7150    -1.5120 hc         1 TWL       0.057700
     25 H071        -2.4780    -2.5090     0.0590 hc         1 TWL       0.054700
     26 H072        -1.8060    -1.8860     1.5520 hc         1 TWL       0.054700
     27 H13         -4.4850    -0.5360     0.5330 hn         1 TWL       0.369000
     28 H11         -2.5100     2.7710    -0.6600 h4         1 TWL       0.037100
@<TRIPOS>BOND
     1     1     2 1   
     2     1    15 1   
     3     1    16 1   
     4     1    17 1   
     5     2     3 1   
     6     2    18 1   
     7     2    19 1   
     8     3     4 1   
     9     4     5 1   
    10     4    14 2   
    11     5     6 1   
    12     5    10 1   
    13     5    20 1   
    14     6     7 1   
    15     6    21 1   
    16     6    22 1   
    17     7     8 1   
    18     7    25 1   
    19     7    26 1   
    20     8     9 2   
    21     8    13 1   
    22     9    10 1   
    23     9    11 1   
    24    10    23 1   
    25    10    24 1   
    26    11    12 2   
    27    11    28 1   
    28    12    13 1   
    29    13    27 1   
@<TRIPOS>SUBSTRUCTURE
     1 TWL         1 TEMP              0 ****  ****    0 ROOT
