@<TRIPOS>MOLECULE
TWM
   45    47     1     0     0
SMALL
bcc


@<TRIPOS>ATOM
      1 C10         28.8420    42.2330    34.1240 cc         1 TWM      -0.083100
      2 C15         29.7160    40.7770    30.7550 c3         1 TWM       0.149100
      3 C17         28.6400    40.2540    35.1210 ca         1 TWM      -0.046200
      4 C20         30.0650    37.9100    34.9000 ca         1 TWM      -0.157000
      5 C21         30.4530    38.9900    34.1320 ca         1 TWM      -0.083000
      6 C22         25.5210    41.0680    33.8280 ca         1 TWM      -0.122500
      7 C04         23.2630    40.3080    34.2030 ca         1 TWM      -0.150600
      8 C05         23.4010    40.6060    35.5550 ca         1 TWM      -0.088500
      9 C06         24.5920    41.1300    36.0350 ca         1 TWM      -0.122500
     10 C07         25.6620    41.3660    35.1810 ca         1 TWM      -0.091300
     11 C11         29.8480    41.4690    33.6060 cd         1 TWM      -0.143400
     12 C12         30.8420    41.8860    32.5710 c3         1 TWM       0.239000
     13 C14         31.2440    42.5530    30.3190 c3         1 TWM       0.149100
     14 C16         29.7360    40.1870    34.2340 ca         1 TWM      -0.091800
     15 C18         28.2420    39.1670    35.8980 ca         1 TWM      -0.141000
     16 C19         28.9700    37.9980    35.7750 ca         1 TWM      -0.114000
     17 C23         24.3310    40.5550    33.3430 ca         1 TWM      -0.088500
     18 N02         21.3120    38.9590    34.4380 ns         1 TWM      -0.459400
     19 N09         28.1170    41.5160    35.0410 na         1 TWM      -0.066400
     20 N13         30.2650    42.0230    31.2420 n3         1 TWM      -0.712600
     21 O01         20.0800    38.5060    34.0860 oh         1 TWM      -0.373100
     22 O24         21.6430    40.0390    32.4820 o          1 TWM      -0.570100
     23 H1          28.5790    43.2580    33.9090 h4         1 TWM       0.168000
     24 H2          28.9110    40.4310    31.4020 h1         1 TWM       0.030367
     25 H3          29.2990    40.9240    29.7580 h1         1 TWM       0.030367
     26 H4          30.4640    39.9690    30.6870 h1         1 TWM       0.030367
     27 H5          30.6100    36.9770    34.8290 ha         1 TWM       0.128000
     28 H6          31.3010    38.9100    33.4620 ha         1 TWM       0.131000
     29 H7          26.3420    41.2330    33.1420 ha         1 TWM       0.142500
     30 H8          22.5820    40.4540    36.2470 ha         1 TWM       0.145000
     31 H9          24.6860    41.3570    37.0910 ha         1 TWM       0.142500
     32 H10         27.0230    41.7480    36.7920 h1         1 TWM       0.066700
     33 H11         26.8950    43.0560    35.6390 h1         1 TWM       0.066700
     34 H12         31.6820    41.1680    32.5720 h1         1 TWM       0.034700
     35 H13         31.2740    42.8530    32.8420 h1         1 TWM       0.034700
     36 H14         31.6090    43.5190    30.6730 h1         1 TWM       0.030367
     37 H15         32.1180    41.8960    30.1830 h1         1 TWM       0.030367
     38 H16         30.7890    42.7060    29.3390 h1         1 TWM       0.030367
     39 H17         27.3970    39.2270    36.5720 ha         1 TWM       0.132000
     40 H18         28.6900    37.1350    36.3650 ha         1 TWM       0.127000
     41 H19         24.2350    40.3360    32.2870 ha         1 TWM       0.145000
     42 H20         21.6360    38.6760    35.3510 hn         1 TWM       0.341500
     43 H22         20.2170    37.6790    33.6040 ho         1 TWM       0.399000
     44 C08         26.9350    41.9680    35.7260 c3         1 TWM       0.094600
     45 C03         21.9990    39.7720    33.6180 c          1 TWM       0.685700
@<TRIPOS>BOND
     1     1    11 2   
     2     1    19 1   
     3     1    23 1   
     4     2    20 1   
     5     2    24 1   
     6     2    25 1   
     7     2    26 1   
     8     3    14 ar  
     9     3    15 ar  
    10     3    19 1   
    11     4     5 ar  
    12     4    16 ar  
    13     4    27 1   
    14     5    14 ar  
    15     5    28 1   
    16     6    10 ar  
    17     6    17 ar  
    18     6    29 1   
    19     7     8 ar  
    20     7    17 ar  
    21     7    45 1   
    22     8     9 ar  
    23     8    30 1   
    24     9    10 ar  
    25     9    31 1   
    26    10    44 1   
    27    11    12 1   
    28    11    14 1   
    29    12    20 1   
    30    12    34 1   
    31    12    35 1   
    32    13    20 1   
    33    13    36 1   
    34    13    37 1   
    35    13    38 1   
    36    15    16 ar  
    37    15    39 1   
    38    16    40 1   
    39    17    41 1   
    40    18    21 1   
    41    18    42 1   
    42    18    45 1   
    43    19    44 1   
    44    21    43 1   
    45    22    45 2   
    46    32    44 1   
    47    33    44 1   
@<TRIPOS>SUBSTRUCTURE
     1 TWM         1 TEMP              0 ****  ****    0 ROOT
