@<TRIPOS>MOLECULE
TWM
   45    47     1     0     0
SMALL
No Charge or Current Charge


@<TRIPOS>ATOM
      1 C10         28.8570    42.3360    34.0830 cc         1 TWM      -0.133100
      2 C15         29.8490    40.8000    30.7170 c3         1 TWM       0.149100
      3 C17         28.6940    40.2670    35.0670 ca         1 TWM      -0.046200
      4 C20         30.1910    37.9260    34.8560 ca         1 TWM      -0.139000
      5 C21         30.5670    39.0620    34.1080 ca         1 TWM      -0.065000
      6 C22         25.4500    41.0530    33.7710 ca         1 TWM      -0.104500
      7 C04         23.2240    40.0990    34.1550 ca         1 TWM      -0.150600
      8 C05         23.4010    40.3200    35.5430 ca         1 TWM      -0.070500
      9 C06         24.5860    40.9000    36.0300 ca         1 TWM      -0.104500
     10 C07         25.6210    41.2670    35.1520 ca         1 TWM      -0.091300
     11 C11         29.8890    41.5240    33.6250 cd         1 TWM      -0.143400
     12 C12         30.9390    41.9410    32.6220 c3         1 TWM       0.239000
     13 C14         31.4080    42.6570    30.3160 c3         1 TWM       0.149100
     14 C16         29.7870    40.2190    34.2450 ca         1 TWM      -0.091800
     15 C18         28.2950    39.1510    35.8200 ca         1 TWM      -0.123000
     16 C19         29.0610    37.9700    35.7080 ca         1 TWM      -0.096000
     17 C23         24.2680    40.4740    33.2790 ca         1 TWM      -0.070500
     18 N02         20.9420    39.1890    34.4910 ns         1 TWM      -0.392400
     19 N09         28.1290    41.5320    34.9810 na         1 TWM      -0.095700
     20 N13         30.4160    42.0650    31.2390 n3         1 TWM      -0.712600
     21 O01         19.6160    38.8290    34.0320 oh         1 TWM      -0.412100
     22 O24         21.8450    39.2220    32.3930 o          1 TWM      -0.570100
     23 H1          28.5920    43.3610    33.8440 h4         1 TWM       0.218000
     24 H2          29.0270    40.4430    31.3520 h1         1 TWM       0.030367
     25 H3          29.4470    40.9440    29.7050 h1         1 TWM       0.030367
     26 H4          30.6160    40.0150    30.6740 h1         1 TWM       0.030367
     27 H5          30.7720    37.0100    34.7750 ha         1 TWM       0.110000
     28 H6          31.4290    39.0360    33.4470 ha         1 TWM       0.113000
     29 H7          26.2330    41.3330    33.0690 ha         1 TWM       0.124500
     30 H8          22.6340    40.0450    36.2630 ha         1 TWM       0.127000
     31 H9          24.6980    41.0600    37.1010 ha         1 TWM       0.124500
     32 H10         27.0250    41.6080    36.7600 h1         1 TWM       0.066700
     33 H11         26.7940    42.9880    35.6840 h1         1 TWM       0.066700
     34 H12         31.7680    41.2210    32.6480 h1         1 TWM       0.034700
     35 H13         31.3480    42.9070    32.9510 h1         1 TWM       0.034700
     36 H14         31.7510    43.6320    30.6880 h1         1 TWM       0.030367
     37 H15         32.2840    42.0020    30.2100 h1         1 TWM       0.030367
     38 H16         30.9700    42.8110    29.3210 h1         1 TWM       0.030367
     39 H17         27.4240    39.1860    36.4690 ha         1 TWM       0.114000
     40 H18         28.7780    37.0870    36.2780 ha         1 TWM       0.109000
     41 H19         24.1670    40.3190    32.2070 ha         1 TWM       0.127000
     42 H20         21.0020    39.5550    35.4380 hn         1 TWM       0.341500
     43 H22         19.4050    38.0140    34.5460 ho         1 TWM       0.438000
     44 C08         26.8990    41.8960    35.7090 c3         1 TWM       0.123900
     45 C03         21.9620    39.4760    33.5870 c          1 TWM       0.618700
@<TRIPOS>BOND
     1     1    11 2   
     2     1    19 1   
     3     1    23 1   
     4     2    20 1   
     5     2    24 1   
     6     2    25 1   
     7     2    26 1   
     8     3    14 ar  
     9     3    15 ar  
    10     3    19 1   
    11     4     5 ar  
    12     4    16 ar  
    13     4    27 1   
    14     5    14 ar  
    15     5    28 1   
    16     6    10 ar  
    17     6    17 ar  
    18     6    29 1   
    19     7     8 ar  
    20     7    17 ar  
    21     7    45 1   
    22     8     9 ar  
    23     8    30 1   
    24     9    10 ar  
    25     9    31 1   
    26    10    44 1   
    27    11    12 1   
    28    11    14 1   
    29    12    20 1   
    30    12    34 1   
    31    12    35 1   
    32    13    20 1   
    33    13    36 1   
    34    13    37 1   
    35    13    38 1   
    36    15    16 ar  
    37    15    39 1   
    38    16    40 1   
    39    17    41 1   
    40    18    21 1   
    41    18    42 1   
    42    18    45 1   
    43    19    44 1   
    44    21    43 1   
    45    22    45 2   
    46    32    44 1   
    47    33    44 1   
@<TRIPOS>SUBSTRUCTURE
     1 TWM         1 TEMP              0 ****  ****    0 ROOT
