@<TRIPOS>MOLECULE
TWN
   67    67     1     0     0
SMALL
abcg2


@<TRIPOS>ATOM
      1 OAG         80.6080     9.5570    63.2300 o          1 TWN      -0.488000
      2 CAE         80.4850     8.4240    62.8160 c          1 TWN       0.590100
      3 OAI         80.3660     7.3590    63.6210 os         1 TWN      -0.464100
      4 CAJ         80.3820     7.6030    65.0500 c3         1 TWN       0.168600
      5 CAM         80.1270     6.2800    65.7380 c3         1 TWN      -0.083400
      6 CAH         80.0220     6.4160    67.2620 c3         1 TWN      -0.050700
      7 CAO         81.3120     6.9340    67.9080 c3         1 TWN      -0.085100
      8 CAB         79.4640     5.1120    67.8460 c5         1 TWN       0.171300
      9 OAA         79.3220     5.2520    69.2730 os         1 TWN      -0.468000
     10 CAD         79.3290     3.9480    69.8750 c5         1 TWN       0.154600
     11 CAF         79.4360     2.9390    68.7280 c5         1 TWN      -0.098700
     12 CAN         80.0510     1.6080    69.1340 c3         1 TWN      -0.078100
     13 CAC         80.1700     3.7610    67.6440 c5         1 TWN      -0.083700
     14 CAK         81.6890     3.7640    67.8070 c3         1 TWN      -0.079100
     15 CAL         80.4650     8.0180    61.3650 c3         1 TWN      -0.137400
     16 CAP         80.3780     9.1860    60.3920 c3         1 TWN      -0.068400
     17 CAW         80.3420     8.7110    58.9410 c3         1 TWN      -0.073400
     18 CAS         80.2680     9.8420    57.9130 c3         1 TWN      -0.071400
     19 CAX         78.9720    10.6500    57.9630 c3         1 TWN      -0.078400
     20 CAT         78.8640    11.6900    56.8500 c3         1 TWN      -0.075400
     21 CAU         77.5630    12.4890    56.9070 c3         1 TWN      -0.073400
     22 CAV         77.3740    13.4770    55.7530 c3         1 TWN      -0.071400
     23 CAR         78.4480    14.5660    55.6420 c3         1 TWN      -0.072400
     24 CAQ         78.6330    15.4270    56.8970 c3         1 TWN      -0.075400
     25 CAY         77.3720    16.1710    57.3330 c3         1 TWN      -0.089100
     26 HAJ1        79.6070     8.3340    65.2890 h1         1 TWN       0.051700
     27 HAJ2        81.3500     8.0270    65.3150 h1         1 TWN       0.051700
     28 HAM1        80.9270     5.5820    65.4800 hc         1 TWN       0.052700
     29 HAM2        79.1950     5.8610    65.3480 hc         1 TWN       0.052700
     30 HAH         79.2440     7.1610    67.4680 hc         1 TWN       0.056700
     31 HAO1        81.2820     6.7970    68.9890 hc         1 TWN       0.039367
     32 HAO2        81.4320     8.0000    67.7100 hc         1 TWN       0.039367
     33 HAO3        82.1970     6.4260    67.5250 hc         1 TWN       0.039367
     34 HAB         78.4590     5.0000    67.4140 h1         1 TWN       0.032700
     35 HAD1        78.4170     3.8130    70.4630 h1         1 TWN       0.044700
     36 HAD2        80.1880     3.8770    70.5520 h1         1 TWN       0.044700
     37 HAF         78.4260     2.7490    68.3530 hc         1 TWN       0.051700
     38 HAN1        80.1560     0.9460    68.2720 hc         1 TWN       0.037033
     39 HAN2        79.4170     1.1030    69.8660 hc         1 TWN       0.037033
     40 HAN3        81.0370     1.7400    69.5830 hc         1 TWN       0.037033
     41 HAC         79.9240     3.3700    66.6540 hc         1 TWN       0.057700
     42 HAK1        82.0760     2.7460    67.7520 hc         1 TWN       0.037700
     43 HAK2        81.9970     4.1880    68.7640 hc         1 TWN       0.037700
     44 HAK3        82.1680     4.3370    67.0150 hc         1 TWN       0.037700
     45 HAL1        79.6280     7.3290    61.2230 hc         1 TWN       0.069700
     46 HAL2        81.3700     7.4280    61.1830 hc         1 TWN       0.069700
     47 HAP1        81.2330     9.8510    60.5390 hc         1 TWN       0.055200
     48 HAP2        79.4850     9.7720    60.6190 hc         1 TWN       0.055200
     49 HAW1        79.4830     8.0460    58.8020 hc         1 TWN       0.037200
     50 HAW2        81.2340     8.1060    58.7450 hc         1 TWN       0.037200
     51 HAS1        80.3760     9.4140    56.9110 hc         1 TWN       0.039200
     52 HAS2        81.1210    10.5170    58.0530 hc         1 TWN       0.039200
     53 HAX1        78.8840    11.1540    58.9300 hc         1 TWN       0.038200
     54 HAX2        78.1200     9.9630    57.9000 hc         1 TWN       0.038200
     55 HAT1        78.9380    11.1890    55.8780 hc         1 TWN       0.037700
     56 HAT2        79.7190    12.3690    56.9120 hc         1 TWN       0.037700
     57 HAU1        77.5120    13.0200    57.8630 hc         1 TWN       0.037700
     58 HAU2        76.7200    11.7890    56.9050 hc         1 TWN       0.037700
     59 HAV1        76.3910    13.9480    55.8520 hc         1 TWN       0.036700
     60 HAV2        77.3480    12.9190    54.8100 hc         1 TWN       0.036700
     61 HAR1        78.1910    15.2190    54.8010 hc         1 TWN       0.035700
     62 HAR2        79.4060    14.1050    55.3880 hc         1 TWN       0.035700
     63 HAQ1        79.4280    16.1530    56.7020 hc         1 TWN       0.037200
     64 HAQ2        78.9900    14.8030    57.7220 hc         1 TWN       0.037200
     65 HAY1        76.5820    15.4800    57.6330 hc         1 TWN       0.030700
     66 HAY2        76.9800    16.7870    56.5180 hc         1 TWN       0.030700
     67 HAY3        77.5760    16.8280    58.1810 hc         1 TWN       0.030700
@<TRIPOS>BOND
     1     1     2 2   
     2     2     3 1   
     3     2    15 1   
     4     3     4 1   
     5     4     5 1   
     6     4    26 1   
     7     4    27 1   
     8     5     6 1   
     9     5    28 1   
    10     5    29 1   
    11     6     7 1   
    12     6     8 1   
    13     6    30 1   
    14     7    31 1   
    15     7    32 1   
    16     7    33 1   
    17     8     9 1   
    18     8    13 1   
    19     8    34 1   
    20     9    10 1   
    21    10    11 1   
    22    10    35 1   
    23    10    36 1   
    24    11    12 1   
    25    11    13 1   
    26    11    37 1   
    27    12    38 1   
    28    12    39 1   
    29    12    40 1   
    30    13    14 1   
    31    13    41 1   
    32    14    42 1   
    33    14    43 1   
    34    14    44 1   
    35    15    16 1   
    36    15    45 1   
    37    15    46 1   
    38    16    17 1   
    39    16    47 1   
    40    16    48 1   
    41    17    18 1   
    42    17    49 1   
    43    17    50 1   
    44    18    19 1   
    45    18    51 1   
    46    18    52 1   
    47    19    20 1   
    48    19    53 1   
    49    19    54 1   
    50    20    21 1   
    51    20    55 1   
    52    20    56 1   
    53    21    22 1   
    54    21    57 1   
    55    21    58 1   
    56    22    23 1   
    57    22    59 1   
    58    22    60 1   
    59    23    24 1   
    60    23    61 1   
    61    23    62 1   
    62    24    25 1   
    63    24    63 1   
    64    24    64 1   
    65    25    65 1   
    66    25    66 1   
    67    25    67 1   
@<TRIPOS>SUBSTRUCTURE
     1 TWN         1 TEMP              0 ****  ****    0 ROOT
