@<TRIPOS>MOLECULE
TWN
   67    67     1     0     0
SMALL
No Charge or Current Charge


@<TRIPOS>ATOM
      1 OAG         83.9820     9.1430    63.0080 o          1 TWN      -0.488000
      2 CAE         83.1910     8.3630    62.4940 c          1 TWN       0.590100
      3 OAI         82.2330     7.6640    63.1810 os         1 TWN      -0.464100
      4 CAJ         82.1670     7.8340    64.6070 c3         1 TWN       0.168600
      5 CAM         81.0090     6.9520    65.1220 c3         1 TWN      -0.083400
      6 CAH         80.7160     7.0920    66.6420 c3         1 TWN      -0.050700
      7 CAO         81.9500     6.7320    67.5170 c3         1 TWN      -0.085100
      8 CAB         79.3760     6.3880    67.0400 c5         1 TWN       0.171300
      9 OAA         79.1370     6.4800    68.4620 os         1 TWN      -0.468000
     10 CAD         78.1320     5.4990    68.8240 c5         1 TWN       0.154600
     11 CAF         77.8120     4.7220    67.5110 c5         1 TWN      -0.098700
     12 CAN         77.2770     3.2850    67.7120 c3         1 TWN      -0.078100
     13 CAC         79.1560     4.8710    66.7300 c5         1 TWN      -0.083700
     14 CAK         80.2840     3.8980    67.1710 c3         1 TWN      -0.079100
     15 CAL         83.1140     8.1010    60.9890 c3         1 TWN      -0.137400
     16 CAP         82.2200     9.1480    60.2830 c3         1 TWN      -0.068400
     17 CAW         82.1000     8.9080    58.7590 c3         1 TWN      -0.073400
     18 CAS         81.2830     9.9840    58.0030 c3         1 TWN      -0.071400
     19 CAX         79.7840    10.0320    58.3810 c3         1 TWN      -0.078400
     20 CAT         78.9860    11.0570    57.5450 c3         1 TWN      -0.075400
     21 CAU         77.4890    11.1110    57.9280 c3         1 TWN      -0.073400
     22 CAV         76.6390    12.0720    57.0590 c3         1 TWN      -0.071400
     23 CAR         77.0550    13.5660    57.0950 c3         1 TWN      -0.072400
     24 CAQ         77.0710    14.2280    58.4960 c3         1 TWN      -0.075400
     25 CAY         75.7050    14.2340    59.2130 c3         1 TWN      -0.089100
     26 HAJ1        81.9720     8.8830    64.8650 h1         1 TWN       0.051700
     27 HAJ2        83.1100     7.5270    65.0770 h1         1 TWN       0.051700
     28 HAM1        81.2330     5.9050    64.8860 hc         1 TWN       0.052700
     29 HAM2        80.1020     7.2150    64.5630 hc         1 TWN       0.052700
     30 HAH         80.5400     8.1610    66.8200 hc         1 TWN       0.056700
     31 HAO1        81.6940     6.7140    68.5830 hc         1 TWN       0.039367
     32 HAO2        82.7420     7.4790    67.3910 hc         1 TWN       0.039367
     33 HAO3        82.3740     5.7590    67.2490 hc         1 TWN       0.039367
     34 HAB         78.5790     6.9590    66.5440 h1         1 TWN       0.032700
     35 HAD1        77.2480     6.0030    69.2370 h1         1 TWN       0.044700
     36 HAD2        78.5530     4.8410    69.5960 h1         1 TWN       0.044700
     37 HAF         77.0160     5.2500    66.9690 hc         1 TWN       0.051700
     38 HAN1        77.1580     2.7710    66.7510 hc         1 TWN       0.037033
     39 HAN2        76.2970     3.3000    68.2050 hc         1 TWN       0.037033
     40 HAN3        77.9490     2.6850    68.3370 hc         1 TWN       0.037033
     41 HAC         79.0000     4.7070    65.6570 hc         1 TWN       0.057700
     42 HAK1        79.9710     2.8530    67.0650 hc         1 TWN       0.037700
     43 HAK2        80.5800     4.0550    68.2150 hc         1 TWN       0.037700
     44 HAK3        81.1720     4.0140    66.5410 hc         1 TWN       0.037700
     45 HAL1        82.6640     7.1160    60.8200 hc         1 TWN       0.069700
     46 HAL2        84.1230     8.1450    60.5630 hc         1 TWN       0.069700
     47 HAP1        82.6290    10.1510    60.4600 hc         1 TWN       0.055200
     48 HAP2        81.2230     9.1230    60.7390 hc         1 TWN       0.055200
     49 HAW1        81.6530     7.9230    58.5790 hc         1 TWN       0.037200
     50 HAW2        83.1090     8.8770    58.3270 hc         1 TWN       0.037200
     51 HAS1        81.3690     9.7870    56.9270 hc         1 TWN       0.039200
     52 HAS2        81.7350    10.9680    58.1780 hc         1 TWN       0.039200
     53 HAX1        79.6790    10.2870    59.4420 hc         1 TWN       0.038200
     54 HAX2        79.3450     9.0360    58.2440 hc         1 TWN       0.038200
     55 HAT1        79.0770    10.8050    56.4810 hc         1 TWN       0.037700
     56 HAT2        79.4360    12.0470    57.6810 hc         1 TWN       0.037700
     57 HAU1        77.3910    11.3870    58.9850 hc         1 TWN       0.037700
     58 HAU2        77.0660    10.1030    57.8350 hc         1 TWN       0.037700
     59 HAV1        75.5890    11.9850    57.3660 hc         1 TWN       0.036700
     60 HAV2        76.6760    11.7270    56.0180 hc         1 TWN       0.036700
     61 HAR1        76.3710    14.1310    56.4500 hc         1 TWN       0.035700
     62 HAR2        78.0490    13.6740    56.6440 hc         1 TWN       0.035700
     63 HAQ1        77.4070    15.2660    58.3830 hc         1 TWN       0.037200
     64 HAQ2        77.8140    13.7340    59.1330 hc         1 TWN       0.037200
     65 HAY1        75.3770    13.2140    59.4440 hc         1 TWN       0.030700
     66 HAY2        74.9410    14.7140    58.5900 hc         1 TWN       0.030700
     67 HAY3        75.7750    14.7880    60.1570 hc         1 TWN       0.030700
@<TRIPOS>BOND
     1     1     2 2   
     2     2     3 1   
     3     2    15 1   
     4     3     4 1   
     5     4     5 1   
     6     4    26 1   
     7     4    27 1   
     8     5     6 1   
     9     5    28 1   
    10     5    29 1   
    11     6     7 1   
    12     6     8 1   
    13     6    30 1   
    14     7    31 1   
    15     7    32 1   
    16     7    33 1   
    17     8     9 1   
    18     8    13 1   
    19     8    34 1   
    20     9    10 1   
    21    10    11 1   
    22    10    35 1   
    23    10    36 1   
    24    11    12 1   
    25    11    13 1   
    26    11    37 1   
    27    12    38 1   
    28    12    39 1   
    29    12    40 1   
    30    13    14 1   
    31    13    41 1   
    32    14    42 1   
    33    14    43 1   
    34    14    44 1   
    35    15    16 1   
    36    15    45 1   
    37    15    46 1   
    38    16    17 1   
    39    16    47 1   
    40    16    48 1   
    41    17    18 1   
    42    17    49 1   
    43    17    50 1   
    44    18    19 1   
    45    18    51 1   
    46    18    52 1   
    47    19    20 1   
    48    19    53 1   
    49    19    54 1   
    50    20    21 1   
    51    20    55 1   
    52    20    56 1   
    53    21    22 1   
    54    21    57 1   
    55    21    58 1   
    56    22    23 1   
    57    22    59 1   
    58    22    60 1   
    59    23    24 1   
    60    23    61 1   
    61    23    62 1   
    62    24    25 1   
    63    24    63 1   
    64    24    64 1   
    65    25    65 1   
    66    25    66 1   
    67    25    67 1   
@<TRIPOS>SUBSTRUCTURE
     1 TWN         1 TEMP              0 ****  ****    0 ROOT
