@<TRIPOS>MOLECULE
TWO
   22    22     1     0     0
SMALL
abcg2


@<TRIPOS>ATOM
      1 O1          -3.3470    -0.9680     0.0700 o          1 TWO      -0.723500
      2 C7          -2.8790     0.1880     0.0490 c          1 TWO       0.714600
      3 O2          -3.5290     1.2520     0.0400 o          1 TWO      -0.723500
      4 C5          -1.3640     0.3140     0.0290 ca         1 TWO      -0.128600
      5 C4          -0.5630    -0.8330     0.0290 ca         1 TWO      -0.136000
      6 C3           0.8170    -0.7460     0.0130 ca         1 TWO       0.069100
      7 O4           1.6600    -1.8000     0.0120 os         1 TWO      -0.345100
      8 C9           1.0990    -3.0950     0.0190 c3         1 TWO       0.152900
      9 C2           1.4360     0.5220    -0.0040 ca         1 TWO       0.070100
     10 O3           2.7830     0.5170    -0.0180 os         1 TWO      -0.337100
     11 C8           3.4480     1.7620    -0.0150 c3         1 TWO       0.155900
     12 C1           0.6430     1.6590    -0.0050 ca         1 TWO      -0.194000
     13 C6          -0.7460     1.5520     0.0110 ca         1 TWO      -0.089000
     14 H2          -1.0530    -1.7970     0.0450 ha         1 TWO       0.136000
     15 H3           0.4760    -3.2760    -0.8620 h1         1 TWO       0.028700
     16 H4           1.9320    -3.7940     0.0080 h1         1 TWO       0.028700
     17 H5           0.4980    -3.2770     0.9140 h1         1 TWO       0.028700
     18 H6           3.2090     2.3570    -0.9010 h1         1 TWO       0.024033
     19 H7           3.2110     2.3520     0.8750 h1         1 TWO       0.024033
     20 H8           4.5140     1.5440    -0.0170 h1         1 TWO       0.024033
     21 H9           1.0930     2.6430    -0.0170 ha         1 TWO       0.092000
     22 H10         -1.3450     2.4530     0.0090 ha         1 TWO       0.128000
@<TRIPOS>BOND
     1     1     2 1   
     2     2     3 1   
     3     2     4 1   
     4     4     5 ar  
     5     4    13 ar  
     6     5     6 ar  
     7     5    14 1   
     8     6     7 1   
     9     6     9 ar  
    10     7     8 1   
    11     8    15 1   
    12     8    16 1   
    13     8    17 1   
    14     9    10 1   
    15     9    12 ar  
    16    10    11 1   
    17    11    18 1   
    18    11    19 1   
    19    11    20 1   
    20    12    13 ar  
    21    12    21 1   
    22    13    22 1   
@<TRIPOS>SUBSTRUCTURE
     1 TWO         1 TEMP              0 ****  ****    0 ROOT
