@<TRIPOS>MOLECULE
TWO
   22    22     1     0     0
SMALL
No Charge or Current Charge


@<TRIPOS>ATOM
      1 O1          -3.4310    -0.9040     0.0520 o          1 TWO      -0.723500
      2 C7          -2.9200     0.2080     0.0430 c          1 TWO       0.714600
      3 O2          -3.5800     1.2370     0.0440 o          1 TWO      -0.723500
      4 C5          -1.4000     0.3130     0.0290 ca         1 TWO      -0.128600
      5 C4          -0.5890    -0.8480     0.0270 ca         1 TWO      -0.136000
      6 C3           0.8220    -0.7520     0.0140 ca         1 TWO       0.069100
      7 O4           1.6310    -1.8780     0.0110 os         1 TWO      -0.345100
      8 C9           1.1000    -3.2150     0.0220 c3         1 TWO       0.152900
      9 C2           1.4380     0.5220     0.0030 ca         1 TWO       0.070100
     10 O3           2.8210     0.5930    -0.0100 os         1 TWO      -0.337100
     11 C8           3.5300     1.8450    -0.0220 c3         1 TWO       0.155900
     12 C1           0.6340     1.6830     0.0050 ca         1 TWO      -0.194000
     13 C6          -0.7660     1.5770     0.0180 ca         1 TWO      -0.089000
     14 H2          -1.0720    -1.8200     0.0350 ha         1 TWO       0.136000
     15 H3           0.4780    -3.3940    -0.8650 h1         1 TWO       0.028700
     16 H4           1.9160    -3.9470     0.0170 h1         1 TWO       0.028700
     17 H5           0.4940    -3.3870     0.9200 h1         1 TWO       0.028700
     18 H6           3.2740     2.4300    -0.9140 h1         1 TWO       0.024033
     19 H7           3.2890     2.4370     0.8710 h1         1 TWO       0.024033
     20 H8           4.6130     1.6670    -0.0310 h1         1 TWO       0.024033
     21 H9           1.0750     2.6750    -0.0030 ha         1 TWO       0.092000
     22 H10         -1.3620     2.4880     0.0190 ha         1 TWO       0.128000
@<TRIPOS>BOND
     1     1     2 1   
     2     2     3 1   
     3     2     4 1   
     4     4     5 ar  
     5     4    13 ar  
     6     5     6 ar  
     7     5    14 1   
     8     6     7 1   
     9     6     9 ar  
    10     7     8 1   
    11     8    15 1   
    12     8    16 1   
    13     8    17 1   
    14     9    10 1   
    15     9    12 ar  
    16    10    11 1   
    17    11    18 1   
    18    11    19 1   
    19    11    20 1   
    20    12    13 ar  
    21    12    21 1   
    22    13    22 1   
@<TRIPOS>SUBSTRUCTURE
     1 TWO         1 TEMP              0 ****  ****    0 ROOT
