@<TRIPOS>MOLECULE
TWP
   34    36     1     0     0
SMALL
abcg2


@<TRIPOS>ATOM
      1 C10         68.8070   113.0920   279.0870 cc         1 TWP      -0.161100
      2 C13         68.8510   111.0460   279.9620 ca         1 TWP      -0.048200
      3 C15         69.1430   109.2120   281.4370 ca         1 TWP      -0.094000
      4 C17         69.7520   111.4420   282.1750 ca         1 TWP      -0.061000
      5 C04         63.8170   110.0510   278.0410 ca         1 TWP      -0.151600
      6 C05         64.3650   110.9720   278.9290 ca         1 TWP      -0.069500
      7 C06         65.6940   111.3530   278.8170 ca         1 TWP      -0.106500
      8 C07         66.5000   110.8170   277.8210 ca         1 TWP      -0.090300
      9 C11         69.3080   113.2460   280.3450 cd         1 TWP      -0.236200
     10 C12         69.3480   111.9430   280.9320 ca         1 TWP      -0.098800
     11 C14         68.7370   109.6770   280.2010 ca         1 TWP      -0.124000
     12 C16         69.6470   110.0860   282.4150 ca         1 TWP      -0.140000
     13 C18         65.9500   109.8960   276.9330 ca         1 TWP      -0.106500
     14 C19         64.6200   109.5260   277.0300 ca         1 TWP      -0.069500
     15 N02         61.8690   109.5750   279.3300 ns         1 TWP      -0.391400
     16 N09         68.5360   111.7700   278.8430 na         1 TWP      -0.096700
     17 O01         60.5380   109.3660   279.5100 oh         1 TWP      -0.413100
     18 O20         61.7540   109.3530   277.0860 o          1 TWP      -0.572100
     19 H1          68.6230   113.8310   278.3230 h4         1 TWP       0.212000
     20 H2          69.0700   108.1550   281.6570 ha         1 TWP       0.109000
     21 H3          70.1400   112.1070   282.9370 ha         1 TWP       0.114000
     22 H4          63.7590   111.4250   279.7030 ha         1 TWP       0.126500
     23 H5          66.0950   112.0770   279.5150 ha         1 TWP       0.125000
     24 H6          68.5320   110.3840   277.2970 h1         1 TWP       0.067700
     25 H7          68.0110   111.9960   276.8700 h1         1 TWP       0.067700
     26 H8          69.6140   114.1760   280.7960 ha         1 TWP       0.207000
     27 H9          68.3430   108.9990   279.4540 ha         1 TWP       0.115000
     28 H10         69.9580   109.6860   283.3720 ha         1 TWP       0.110000
     29 H11         66.5680   109.4630   276.1550 ha         1 TWP       0.125000
     30 H12         64.2080   108.8150   276.3270 ha         1 TWP       0.126500
     31 H13         62.3950   109.7620   280.1700 hn         1 TWP       0.343500
     32 H14         60.4160   108.4090   279.5770 ho         1 TWP       0.440000
     33 C08         67.9410   111.2330   277.6490 c3         1 TWP       0.122900
     34 C03         62.3850   109.6350   278.0910 c          1 TWP       0.619700
@<TRIPOS>BOND
     1     1     9 2   
     2     1    16 1   
     3     1    19 1   
     4     2    10 ar  
     5     2    11 ar  
     6     2    16 1   
     7     3    11 ar  
     8     3    12 ar  
     9     3    20 1   
    10     4    10 ar  
    11     4    12 ar  
    12     4    21 1   
    13     5     6 ar  
    14     5    14 ar  
    15     5    34 1   
    16     6     7 ar  
    17     6    22 1   
    18     7     8 ar  
    19     7    23 1   
    20     8    13 ar  
    21     8    33 1   
    22     9    10 1   
    23     9    26 1   
    24    11    27 1   
    25    12    28 1   
    26    13    14 ar  
    27    13    29 1   
    28    14    30 1   
    29    15    17 1   
    30    15    31 1   
    31    15    34 1   
    32    16    33 1   
    33    17    32 1   
    34    18    34 2   
    35    24    33 1   
    36    25    33 1   
@<TRIPOS>SUBSTRUCTURE
     1 TWP         1 TEMP              0 ****  ****    0 ROOT
