@<TRIPOS>MOLECULE
TWP
   34    36     1     0     0
SMALL
No Charge or Current Charge


@<TRIPOS>ATOM
      1 C10         68.6730   113.2940   279.2960 cc         1 TWP      -0.161100
      2 C13         68.9160   111.0980   279.9500 ca         1 TWP      -0.048200
      3 C15         69.4140   109.0930   281.1980 ca         1 TWP      -0.094000
      4 C17         69.9080   111.2990   282.1560 ca         1 TWP      -0.061000
      5 C04         63.8460   109.7940   278.0990 ca         1 TWP      -0.151600
      6 C05         64.2510   110.9120   278.8690 ca         1 TWP      -0.069500
      7 C06         65.5460   111.4420   278.7380 ca         1 TWP      -0.106500
      8 C07         66.4700   110.8680   277.8420 ca         1 TWP      -0.090300
      9 C11         69.2420   113.2290   280.5620 cd         1 TWP      -0.236200
     10 C12         69.3970   111.8590   280.9800 ca         1 TWP      -0.098800
     11 C14         68.9060   109.6960   280.0250 ca         1 TWP      -0.124000
     12 C16         69.9130   109.8900   282.2580 ca         1 TWP      -0.140000
     13 C18         66.0740   109.7590   277.0740 ca         1 TWP      -0.106500
     14 C19         64.7800   109.2270   277.2020 ca         1 TWP      -0.069500
     15 N02         61.5620   109.8330   279.0610 ns         1 TWP      -0.391400
     16 N09         68.4820   111.9440   278.9340 na         1 TWP      -0.096700
     17 O01         60.1520   109.4960   279.0550 oh         1 TWP      -0.413100
     18 O20         62.1390   108.1800   277.5960 o          1 TWP      -0.572100
     19 H1          68.4040   114.1330   278.6620 h4         1 TWP       0.212000
     20 H2          69.4210   108.0090   281.2880 ha         1 TWP       0.109000
     21 H3          70.2860   111.9240   282.9620 ha         1 TWP       0.114000
     22 H4          63.5770   111.3840   279.5790 ha         1 TWP       0.126500
     23 H5          65.8290   112.3030   279.3390 ha         1 TWP       0.125000
     24 H6          68.5470   110.6570   277.2820 h1         1 TWP       0.067700
     25 H7          67.8570   112.2490   276.9550 h1         1 TWP       0.067700
     26 H8          69.5260   114.0980   281.1530 ha         1 TWP       0.207000
     27 H9          68.5190   109.0870   279.2120 ha         1 TWP       0.115000
     28 H10         70.3010   109.4150   283.1560 ha         1 TWP       0.110000
     29 H11         66.7700   109.3030   276.3730 ha         1 TWP       0.125000
     30 H12         64.5040   108.3670   276.5940 ha         1 TWP       0.126500
     31 H13         61.7990   110.7510   279.4300 hn         1 TWP       0.343500
     32 H14         59.9410   109.3590   280.0090 ho         1 TWP       0.440000
     33 C08         67.8840   111.4320   277.6870 c3         1 TWP       0.122900
     34 C03         62.4580   109.1910   278.2110 c          1 TWP       0.619700
@<TRIPOS>BOND
     1     1     9 2   
     2     1    16 1   
     3     1    19 1   
     4     2    10 ar  
     5     2    11 ar  
     6     2    16 1   
     7     3    11 ar  
     8     3    12 ar  
     9     3    20 1   
    10     4    10 ar  
    11     4    12 ar  
    12     4    21 1   
    13     5     6 ar  
    14     5    14 ar  
    15     5    34 1   
    16     6     7 ar  
    17     6    22 1   
    18     7     8 ar  
    19     7    23 1   
    20     8    13 ar  
    21     8    33 1   
    22     9    10 1   
    23     9    26 1   
    24    11    27 1   
    25    12    28 1   
    26    13    14 ar  
    27    13    29 1   
    28    14    30 1   
    29    15    17 1   
    30    15    31 1   
    31    15    34 1   
    32    16    33 1   
    33    17    32 1   
    34    18    34 2   
    35    24    33 1   
    36    25    33 1   
@<TRIPOS>SUBSTRUCTURE
     1 TWP         1 TEMP              0 ****  ****    0 ROOT
