@<TRIPOS>MOLECULE
TWQ
   35    36     1     0     0
SMALL
No Charge or Current Charge


@<TRIPOS>ATOM
      1 C01         20.5570    20.0040     0.9620 c3         1 TWQ       0.140900
      2 C03         22.4210    18.5500     1.6910 c6         1 TWQ       0.136300
      3 C04         22.9640    17.1130     1.4900 c6         1 TWQ      -0.068400
      4 C05         23.5510    16.9360     0.0650 c6         1 TWQ      -0.104400
      5 C06         24.6300    18.0050    -0.2570 c6         1 TWQ       0.205800
      6 C08         23.8400    20.2890    -1.0140 ca         1 TWQ       0.382000
      7 C09         24.3730    21.5900    -1.0340 ca         1 TWQ      -0.207200
      8 C13         24.0000    22.4980    -2.0470 ca         1 TWQ      -0.045000
      9 C14         23.1020    22.1030    -3.0520 ca         1 TWQ      -0.101000
     10 C15         22.5660    20.7990    -3.0520 ca         1 TWQ      -0.133600
     11 C16         21.5950    20.3570    -4.1180 c          1 TWQ       0.579500
     12 C17         22.9410    19.9050    -2.0270 ca         1 TWQ      -0.140000
     13 C18         23.5610    19.5770     1.3870 c6         1 TWQ       0.180800
     14 N07         24.1460    19.3860     0.0250 nh         1 TWQ      -0.792400
     15 N10         25.3330    22.0140     0.0020 no         1 TWQ       0.690200
     16 O02         21.2430    18.7420     0.8640 os         1 TWQ      -0.456000
     17 O11         26.4260    21.4350     0.0430 o          1 TWQ      -0.394500
     18 O12         25.1020    23.0830     0.5810 o          1 TWQ      -0.394500
     19 H1          19.6310    19.9780     0.3740 h1         1 TWQ       0.033367
     20 H2          20.2940    20.2260     2.0040 h1         1 TWQ       0.033367
     21 H3          21.1770    20.8220     0.5740 h1         1 TWQ       0.033367
     22 H4          22.1180    18.6650     2.7420 h1         1 TWQ       0.045700
     23 H5          22.1630    16.3820     1.6640 hc         1 TWQ       0.053700
     24 H6          23.7410    16.9070     2.2390 hc         1 TWQ       0.053700
     25 H7          22.7420    16.9940    -0.6740 hc         1 TWQ       0.053700
     26 H8          23.9870    15.9340    -0.0370 hc         1 TWQ       0.053700
     27 H9          24.9330    17.9090    -1.3110 h1         1 TWQ       0.058200
     28 H10         25.5280    17.8030     0.3450 h1         1 TWQ       0.058200
     29 H11         24.4110    23.5070    -2.0610 ha         1 TWQ       0.146000
     30 H12         22.8260    22.8130    -3.8300 ha         1 TWQ       0.145000
     31 H13         21.2220    19.3120    -4.0310 h4         1 TWQ      -0.004800
     32 H16         22.5150    18.9070    -2.0040 ha         1 TWQ       0.127000
     33 H17         24.3520    19.4580     2.1420 h1         1 TWQ       0.065700
     34 H18         23.1830    20.6020     1.5100 h1         1 TWQ       0.065700
     35 O1          21.2210    21.0810    -5.0360 o          1 TWQ      -0.499100
@<TRIPOS>BOND
     1     1    16 1   
     2     1    19 1   
     3     1    20 1   
     4     1    21 1   
     5     2     3 1   
     6     2    13 1   
     7     2    16 1   
     8     2    22 1   
     9     3     4 1   
    10     3    23 1   
    11     3    24 1   
    12     4     5 1   
    13     4    25 1   
    14     4    26 1   
    15     5    14 1   
    16     5    27 1   
    17     5    28 1   
    18     6     7 ar  
    19     6    12 ar  
    20     6    14 1   
    21     7     8 ar  
    22     7    15 1   
    23     8     9 ar  
    24     8    29 1   
    25     9    10 ar  
    26     9    30 1   
    27    10    11 1   
    28    10    12 ar  
    29    11    31 1   
    30    11    35 2   
    31    12    32 1   
    32    13    14 1   
    33    13    33 1   
    34    13    34 1   
    35    15    17 1   
    36    15    18 1   
@<TRIPOS>SUBSTRUCTURE
     1 TWQ         1 TEMP              0 ****  ****    0 ROOT
