@<TRIPOS>MOLECULE
TWQ
   35    36     1     0     0
SMALL
abcg2


@<TRIPOS>ATOM
      1 C01         21.0080    20.3820     1.2650 c3         1 TWQ       0.140900
      2 C03         22.5990    18.6660     1.6670 c6         1 TWQ       0.136300
      3 C04         22.8140    17.1940     1.3470 c6         1 TWQ      -0.068400
      4 C05         23.2740    16.9980    -0.0940 c6         1 TWQ      -0.104400
      5 C06         24.4710    17.8950    -0.3900 c6         1 TWQ       0.205800
      6 C08         23.8080    20.1710    -1.0140 ca         1 TWQ       0.382000
      7 C09         23.9640    21.5660    -0.9060 ca         1 TWQ      -0.207200
      8 C13         23.4460    22.4610    -1.8370 ca         1 TWQ      -0.045000
      9 C14         22.8260    21.9950    -2.9740 ca         1 TWQ      -0.101000
     10 C15         22.7200    20.6160    -3.1540 ca         1 TWQ      -0.133600
     11 C16         22.0720    20.0490    -4.3560 c          1 TWQ       0.579500
     12 C17         23.1880    19.7340    -2.1970 ca         1 TWQ      -0.140000
     13 C18         23.8660    19.4630     1.3410 c6         1 TWQ       0.180800
     14 N07         24.2420    19.2920    -0.0530 nh         1 TWQ      -0.792400
     15 N10         24.7640    22.1600     0.1550 no         1 TWQ       0.690200
     16 O02         21.4940    19.1110     0.9140 os         1 TWQ      -0.456000
     17 O11         25.8330    21.6580     0.4060 o          1 TWQ      -0.394500
     18 O12         24.3330    23.1540     0.6940 o          1 TWQ      -0.394500
     19 H1          20.0540    20.5230     0.7580 h1         1 TWQ       0.033367
     20 H2          20.8410    20.4740     2.3440 h1         1 TWQ       0.033367
     21 H3          21.6730    21.1980     0.9570 h1         1 TWQ       0.033367
     22 H4          22.3980    18.7840     2.7430 h1         1 TWQ       0.045700
     23 H5          21.9010    16.6290     1.5480 hc         1 TWQ       0.053700
     24 H6          23.5780    16.8110     2.0300 hc         1 TWQ       0.053700
     25 H7          22.4550    17.2080    -0.7860 hc         1 TWQ       0.053700
     26 H8          23.5620    15.9580    -0.2590 hc         1 TWQ       0.053700
     27 H9          24.7890    17.8150    -1.4290 h1         1 TWQ       0.058200
     28 H10         25.3220    17.5610     0.2140 h1         1 TWQ       0.058200
     29 H11         23.5760    23.5240    -1.6900 ha         1 TWQ       0.146000
     30 H12         22.4440    22.6860    -3.7120 ha         1 TWQ       0.145000
     31 H13         22.0440    18.9460    -4.3870 h4         1 TWQ      -0.004800
     32 H16         23.0370    18.6750    -2.3590 ha         1 TWQ       0.127000
     33 H17         24.6820    19.1090     1.9780 h1         1 TWQ       0.065700
     34 H18         23.7140    20.5090     1.6000 h1         1 TWQ       0.065700
     35 O1          21.6040    20.7120    -5.2470 o          1 TWQ      -0.499100
@<TRIPOS>BOND
     1     1    16 1   
     2     1    19 1   
     3     1    20 1   
     4     1    21 1   
     5     2     3 1   
     6     2    13 1   
     7     2    16 1   
     8     2    22 1   
     9     3     4 1   
    10     3    23 1   
    11     3    24 1   
    12     4     5 1   
    13     4    25 1   
    14     4    26 1   
    15     5    14 1   
    16     5    27 1   
    17     5    28 1   
    18     6     7 ar  
    19     6    12 ar  
    20     6    14 1   
    21     7     8 ar  
    22     7    15 1   
    23     8     9 ar  
    24     8    29 1   
    25     9    10 ar  
    26     9    30 1   
    27    10    11 1   
    28    10    12 ar  
    29    11    31 1   
    30    11    35 2   
    31    12    32 1   
    32    13    14 1   
    33    13    33 1   
    34    13    34 1   
    35    15    17 1   
    36    15    18 1   
@<TRIPOS>SUBSTRUCTURE
     1 TWQ         1 TEMP              0 ****  ****    0 ROOT
