@<TRIPOS>MOLECULE
TWR
   28    28     1     0     0
SMALL
No Charge or Current Charge


@<TRIPOS>ATOM
      1 N1           0.6050    -2.8730   -53.6360 nv         1 TWR      -1.051000
      2 C4           3.0380    -3.5980   -50.2720 ca         1 TWR       0.099100
      3 C5           2.9290    -2.3100   -50.8210 ca         1 TWR      -0.113000
      4 C6           2.1160    -2.0760   -51.9450 ca         1 TWR      -0.127000
      5 C7           1.3960    -3.1300   -52.5330 ca         1 TWR       0.222000
      6 C8           1.5030    -4.4290   -51.9710 ca         1 TWR       0.135000
      7 N            6.2910    -5.3220   -50.1610 n          1 TWR      -0.400800
      8 C            6.8180    -4.0190   -49.6920 c3         1 TWR       0.085300
      9 O            4.7500    -7.0110   -49.9740 o          1 TWR      -0.606100
     10 C1           7.1000    -6.0730   -51.1480 c3         1 TWR       0.085300
     11 C2           5.0950    -5.8810   -49.6430 c          1 TWR       0.569100
     12 C3           4.2330    -5.0580   -48.6480 c3         1 TWR       0.081600
     13 C9           2.3150    -4.6630   -50.8490 ca         1 TWR      -0.167000
     14 F            0.8180    -5.4670   -52.5110 f          1 TWR      -0.185000
     15 H1           0.1460    -3.6420   -54.1240 hn         1 TWR       0.446500
     16 H2           0.6210    -1.9600   -54.0880 hn         1 TWR       0.446500
     17 H3           3.4820    -1.4870   -50.3740 ha         1 TWR       0.127000
     18 H4           2.0470    -1.0720   -52.3570 ha         1 TWR       0.119000
     19 H5           6.7430    -3.9470   -48.6000 h1         1 TWR       0.046033
     20 H6           7.8750    -3.9110   -49.9700 h1         1 TWR       0.046033
     21 H7           6.2490    -3.2010   -50.1520 h1         1 TWR       0.046033
     22 H8           7.8630    -5.4240   -51.5970 h1         1 TWR       0.046033
     23 H9           7.5950    -6.9170   -50.6530 h1         1 TWR       0.046033
     24 H10          6.4530    -6.4540   -51.9490 h1         1 TWR       0.046033
     25 H11          3.3490    -5.6480   -48.3800 h1         1 TWR       0.077200
     26 H12          4.8290    -4.9330   -47.7360 h1         1 TWR       0.077200
     27 H13          2.3600    -5.6690   -50.4440 ha         1 TWR       0.152000
     28 O1           3.8530    -3.7580   -49.1690 os         1 TWR      -0.349100
@<TRIPOS>BOND
     1     1     5 1   
     2     1    15 1   
     3     1    16 1   
     4     2     3 ar  
     5     2    13 ar  
     6     2    28 1   
     7     3     4 ar  
     8     3    17 1   
     9     4     5 ar  
    10     4    18 1   
    11     5     6 ar  
    12     6    13 ar  
    13     6    14 1   
    14     7     8 1   
    15     7    10 1   
    16     7    11 1   
    17     8    19 1   
    18     8    20 1   
    19     8    21 1   
    20     9    11 2   
    21    10    22 1   
    22    10    23 1   
    23    10    24 1   
    24    11    12 1   
    25    12    25 1   
    26    12    26 1   
    27    12    28 1   
    28    13    27 1   
@<TRIPOS>SUBSTRUCTURE
     1 TWR         1 TEMP              0 ****  ****    0 ROOT
