@<TRIPOS>MOLECULE
TWR
   28    28     1     0     0
SMALL
abcg2


@<TRIPOS>ATOM
      1 N1           0.9950    -3.0870   -53.7430 nv         1 TWR      -1.051000
      2 C4           3.1170    -3.6820   -50.1460 ca         1 TWR       0.099100
      3 C5           3.1080    -2.4300   -50.7540 ca         1 TWR      -0.113000
      4 C6           2.3850    -2.2190   -51.9180 ca         1 TWR      -0.127000
      5 C7           1.6650    -3.2510   -52.5310 ca         1 TWR       0.222000
      6 C8           1.7160    -4.4900   -51.8970 ca         1 TWR       0.135000
      7 N            6.0970    -5.2320   -50.2020 n          1 TWR      -0.400800
      8 C            6.5600    -3.8870   -49.8880 c3         1 TWR       0.085300
      9 O            4.7200    -7.0080   -49.8640 o          1 TWR      -0.606100
     10 C1           6.8100    -5.8900   -51.2890 c3         1 TWR       0.085300
     11 C2           5.0520    -5.8450   -49.6140 c          1 TWR       0.569100
     12 C3           4.2610    -5.0730   -48.5520 c3         1 TWR       0.081600
     13 C9           2.4090    -4.7320   -50.7270 ca         1 TWR      -0.167000
     14 F            1.0260    -5.5200   -52.4650 f          1 TWR      -0.185000
     15 H1           0.2100    -3.7090   -53.8750 hn         1 TWR       0.446500
     16 H2           0.7410    -2.1300   -53.9430 hn         1 TWR       0.446500
     17 H3           3.6620    -1.6190   -50.2980 ha         1 TWR       0.127000
     18 H4           2.3770    -1.2370   -52.3760 ha         1 TWR       0.119000
     19 H5           6.2140    -3.5660   -48.9120 h1         1 TWR       0.046033
     20 H6           7.6510    -3.8900   -49.8870 h1         1 TWR       0.046033
     21 H7           6.2150    -3.1700   -50.6380 h1         1 TWR       0.046033
     22 H8           7.8780    -5.9060   -51.0690 h1         1 TWR       0.046033
     23 H9           6.4460    -6.9050   -51.4010 h1         1 TWR       0.046033
     24 H10          6.6560    -5.3420   -52.2230 h1         1 TWR       0.046033
     25 H11          3.4320    -5.7130   -48.2510 h1         1 TWR       0.077200
     26 H12          4.8910    -4.8900   -47.6810 h1         1 TWR       0.077200
     27 H13          2.3840    -5.7230   -50.2970 ha         1 TWR       0.152000
     28 O1           3.7960    -3.7870   -48.9560 os         1 TWR      -0.349100
@<TRIPOS>BOND
     1     1     5 1   
     2     1    15 1   
     3     1    16 1   
     4     2     3 ar  
     5     2    13 ar  
     6     2    28 1   
     7     3     4 ar  
     8     3    17 1   
     9     4     5 ar  
    10     4    18 1   
    11     5     6 ar  
    12     6    13 ar  
    13     6    14 1   
    14     7     8 1   
    15     7    10 1   
    16     7    11 1   
    17     8    19 1   
    18     8    20 1   
    19     8    21 1   
    20     9    11 2   
    21    10    22 1   
    22    10    23 1   
    23    10    24 1   
    24    11    12 1   
    25    12    25 1   
    26    12    26 1   
    27    12    28 1   
    28    13    27 1   
@<TRIPOS>SUBSTRUCTURE
     1 TWR         1 TEMP              0 ****  ****    0 ROOT
