@<TRIPOS>MOLECULE
TWS
   41    43     1     0     0
SMALL
No Charge or Current Charge


@<TRIPOS>ATOM
      1 C10         63.9350   109.9970   276.3610 ca         1 TWS      -0.071500
      2 C13         64.8450   109.0270   278.8270 ca         1 TWS      -0.104000
      3 C20         69.9530   108.0620   274.8340 ca         1 TWS      -0.065000
      4 C21         69.4780   106.7410   274.9800 ca         1 TWS      -0.141000
      5 C22         68.5120   106.4350   275.9660 ca         1 TWS      -0.096000
      6 C02         70.2050   111.4290   273.4490 c3         1 TWS       0.163600
      7 C04         69.7280   110.4530   275.7690 cc         1 TWS      -0.129400
      8 C05         68.9370   110.9510   276.8010 cd         1 TWS      -0.140100
      9 C07         67.1780   109.9560   278.4390 c3         1 TWS       0.124900
     10 C08         65.7330   109.7280   277.9920 ca         1 TWS      -0.092300
     11 C09         65.2650   110.2150   276.7560 ca         1 TWS      -0.104000
     12 C11         63.0360   109.2900   277.1920 ca         1 TWS      -0.150600
     13 C12         63.5130   108.8060   278.4350 ca         1 TWS      -0.071500
     14 C14         61.6060   109.0740   276.7310 c          1 TWS       0.619700
     15 C18         68.5030   108.7530   276.6480 ca         1 TWS      -0.042200
     16 C19         69.4360   109.0460   275.6900 ca         1 TWS      -0.093800
     17 C23         68.0130   107.4460   276.8140 ca         1 TWS      -0.123000
     18 N06         68.1710   109.8990   277.3510 na         1 TWS      -0.095700
     19 N16         60.7520   108.4290   277.6210 ns         1 TWS      -0.393400
     20 O01         69.0670   112.3020   273.4120 oh         1 TWS      -0.660000
     21 O15         61.2200   109.4340   275.6250 o          1 TWS      -0.570100
     22 O17         59.3210   108.3920   277.3900 oh         1 TWS      -0.414100
     23 H1          63.6040   110.3840   275.3990 ha         1 TWS       0.125500
     24 H2          65.1880   108.6450   279.7860 ha         1 TWS       0.126500
     25 H3          70.6970   108.3060   274.0800 ha         1 TWS       0.110000
     26 H4          69.8590   105.9560   274.3320 ha         1 TWS       0.109000
     27 H5          68.1500   105.4140   276.0720 ha         1 TWS       0.108000
     28 H6          69.9550   110.4550   273.0080 h1         1 TWS       0.017700
     29 H7          71.0250   111.8610   272.8600 h1         1 TWS       0.017700
     30 H8          71.6500   110.6910   274.8720 hc         1 TWS       0.050700
     31 H9          70.9030   112.2020   275.3510 hc         1 TWS       0.050700
     32 H10         68.8590   111.9680   277.1720 h4         1 TWS       0.215000
     33 H11         67.4530   109.2050   279.1900 h1         1 TWS       0.066700
     34 H12         67.2470   110.9390   278.9210 h1         1 TWS       0.066700
     35 H13         65.9310   110.7660   276.0950 ha         1 TWS       0.126500
     36 H14         62.8680   108.2500   279.1110 ha         1 TWS       0.125500
     37 H15         67.2700   107.2150   277.5730 ha         1 TWS       0.113000
     38 H16         61.0520   108.2870   278.5830 hn         1 TWS       0.341500
     39 H17         68.7870   112.3650   272.4730 ho         1 TWS       0.440000
     40 H18         59.0910   107.4390   277.5050 ho         1 TWS       0.440000
     41 C03         70.6920   111.2240   274.9020 c3         1 TWS      -0.000200
@<TRIPOS>BOND
     1     1    11 ar  
     2     1    12 ar  
     3     1    23 1   
     4     2    10 ar  
     5     2    13 ar  
     6     2    24 1   
     7     3     4 ar  
     8     3    16 ar  
     9     3    25 1   
    10     4     5 ar  
    11     4    26 1   
    12     5    17 ar  
    13     5    27 1   
    14     6    20 1   
    15     6    28 1   
    16     6    29 1   
    17     6    41 1   
    18     7     8 2   
    19     7    16 1   
    20     7    41 1   
    21     8    18 1   
    22     8    32 1   
    23     9    10 1   
    24     9    18 1   
    25     9    33 1   
    26     9    34 1   
    27    10    11 ar  
    28    11    35 1   
    29    12    13 ar  
    30    12    14 1   
    31    13    36 1   
    32    14    19 1   
    33    14    21 2   
    34    15    16 ar  
    35    15    17 ar  
    36    15    18 1   
    37    17    37 1   
    38    19    22 1   
    39    19    38 1   
    40    20    39 1   
    41    22    40 1   
    42    30    41 1   
    43    31    41 1   
@<TRIPOS>SUBSTRUCTURE
     1 TWS         1 TEMP              0 ****  ****    0 ROOT
