@<TRIPOS>MOLECULE
TWS
   41    43     1     0     0
SMALL
abcg2


@<TRIPOS>ATOM
      1 C10         64.1440   110.1350   276.4180 ca         1 TWS      -0.071500
      2 C13         64.9470   109.1870   278.8880 ca         1 TWS      -0.104000
      3 C20         69.8360   107.9180   274.8950 ca         1 TWS      -0.065000
      4 C21         69.4130   106.6280   275.1540 ca         1 TWS      -0.141000
      5 C22         68.5520   106.3500   276.2280 ca         1 TWS      -0.096000
      6 C02         69.6480   111.4020   273.4550 c3         1 TWS       0.163600
      7 C04         69.6150   110.3720   275.7440 cc         1 TWS      -0.129400
      8 C05         68.9030   110.8460   276.8050 cd         1 TWS      -0.140100
      9 C07         67.3050   109.9690   278.5210 c3         1 TWS       0.124900
     10 C08         65.8770   109.7990   278.0580 ca         1 TWS      -0.092300
     11 C09         65.4620   110.2700   276.8140 ca         1 TWS      -0.104000
     12 C11         63.2150   109.5070   277.2450 ca         1 TWS      -0.150600
     13 C12         63.6270   109.0400   278.4900 ca         1 TWS      -0.071500
     14 C14         61.8040   109.4080   276.7690 c          1 TWS       0.619700
     15 C18         68.5340   108.6530   276.8010 ca         1 TWS      -0.042200
     16 C19         69.3920   108.9560   275.7220 ca         1 TWS      -0.093800
     17 C23         68.1000   107.3540   277.0650 ca         1 TWS      -0.123000
     18 N06         68.2600   109.8210   277.4560 na         1 TWS      -0.095700
     19 N16         61.1550   108.3070   277.1850 ns         1 TWS      -0.393400
     20 O01         68.4720   112.1290   273.7280 oh         1 TWS      -0.660000
     21 O15         61.3030   110.2480   276.0410 o          1 TWS      -0.570100
     22 O17         59.8230   108.1670   276.9560 oh         1 TWS      -0.414100
     23 H1          63.8360   110.5130   275.4520 ha         1 TWS       0.125500
     24 H2          65.2530   108.8180   279.8600 ha         1 TWS       0.126500
     25 H3          70.4980   108.1190   274.0610 ha         1 TWS       0.110000
     26 H4          69.7450   105.8170   274.5190 ha         1 TWS       0.109000
     27 H5          68.2330   105.3310   276.4030 ha         1 TWS       0.108000
     28 H6          69.4230   110.4330   272.9880 h1         1 TWS       0.017700
     29 H7          70.3060   111.9430   272.7610 h1         1 TWS       0.017700
     30 H8          71.3380   110.6620   274.5140 hc         1 TWS       0.050700
     31 H9          70.6760   112.1350   275.1890 hc         1 TWS       0.050700
     32 H10         68.7990   111.8610   277.1590 h4         1 TWS       0.215000
     33 H11         67.5260   109.2540   279.3160 h1         1 TWS       0.066700
     34 H12         67.4390   110.9630   278.9520 h1         1 TWS       0.066700
     35 H13         66.1690   110.7460   276.1450 ha         1 TWS       0.126500
     36 H14         62.9270   108.5730   279.1720 ha         1 TWS       0.125500
     37 H15         67.4330   107.1330   277.8890 ha         1 TWS       0.113000
     38 H16         61.5740   107.5900   277.7590 hn         1 TWS       0.341500
     39 H17         67.9870   112.2300   272.9050 ho         1 TWS       0.440000
     40 H18         59.7370   107.6830   276.1240 ho         1 TWS       0.440000
     41 C03         70.4000   111.1690   274.7580 c3         1 TWS      -0.000200
@<TRIPOS>BOND
     1     1    11 ar  
     2     1    12 ar  
     3     1    23 1   
     4     2    10 ar  
     5     2    13 ar  
     6     2    24 1   
     7     3     4 ar  
     8     3    16 ar  
     9     3    25 1   
    10     4     5 ar  
    11     4    26 1   
    12     5    17 ar  
    13     5    27 1   
    14     6    20 1   
    15     6    28 1   
    16     6    29 1   
    17     6    41 1   
    18     7     8 2   
    19     7    16 1   
    20     7    41 1   
    21     8    18 1   
    22     8    32 1   
    23     9    10 1   
    24     9    18 1   
    25     9    33 1   
    26     9    34 1   
    27    10    11 ar  
    28    11    35 1   
    29    12    13 ar  
    30    12    14 1   
    31    13    36 1   
    32    14    19 1   
    33    14    21 2   
    34    15    16 ar  
    35    15    17 ar  
    36    15    18 1   
    37    17    37 1   
    38    19    22 1   
    39    19    38 1   
    40    20    39 1   
    41    22    40 1   
    42    30    41 1   
    43    31    41 1   
@<TRIPOS>SUBSTRUCTURE
     1 TWS         1 TEMP              0 ****  ****    0 ROOT
