@<TRIPOS>MOLECULE
TWT
   68    67     1     0     0
SMALL
abcg2


@<TRIPOS>ATOM
      1 C1          -0.3740    -0.0300    13.3420 c3         1 TWT      -0.088100
      2 C2           0.4790    -0.0100    12.0810 c3         1 TWT      -0.075400
      3 C3          -0.3550    -0.0210    10.8050 c3         1 TWT      -0.075900
      4 C4           0.4830    -0.0040     9.5330 c3         1 TWT      -0.074400
      5 C5          -0.3570    -0.0150     8.2620 c3         1 TWT      -0.074400
      6 C6           0.4760    -0.0110     6.9860 c3         1 TWT      -0.074400
      7 C7          -0.3670    -0.0190     5.7180 c3         1 TWT      -0.074400
      8 C8           0.4630    -0.0150     4.4400 c3         1 TWT      -0.074400
      9 C9          -0.3830    -0.0240     3.1730 c3         1 TWT      -0.074400
     10 C10          0.4460    -0.0140     1.8940 c3         1 TWT      -0.074400
     11 C11         -0.4020    -0.0240     0.6280 c3         1 TWT      -0.074400
     12 C12          0.4260    -0.0140    -0.6510 c3         1 TWT      -0.074400
     13 C13         -0.4210    -0.0250    -1.9170 c3         1 TWT      -0.074400
     14 C14          0.4070    -0.0140    -3.1960 c3         1 TWT      -0.074400
     15 C15         -0.4390    -0.0230    -4.4630 c3         1 TWT      -0.074400
     16 C16          0.3910    -0.0120    -5.7410 c3         1 TWT      -0.074400
     17 C17         -0.4530    -0.0230    -7.0090 c3         1 TWT      -0.074400
     18 C18          0.3810    -0.0110    -8.2850 c3         1 TWT      -0.074400
     19 C19         -0.4600    -0.0230    -9.5560 c3         1 TWT      -0.074400
     20 C20          0.3780    -0.0100   -10.8290 c3         1 TWT      -0.075900
     21 C21         -0.4560    -0.0190   -12.1040 c3         1 TWT      -0.075400
     22 C22          0.3980    -0.0080   -13.3650 c3         1 TWT      -0.088100
     23 H1C1         0.2380    -0.0230    14.2450 hc         1 TWT       0.031367
     24 H1C2        -1.0340     0.8380    13.3820 hc         1 TWT       0.031367
     25 H1C3        -1.0020    -0.9220    13.3760 hc         1 TWT       0.031367
     26 H2C1         1.1220     0.8760    12.0850 hc         1 TWT       0.036700
     27 H2C2         1.1530    -0.8730    12.0790 hc         1 TWT       0.036700
     28 H3C1        -1.0000    -0.9070    10.8030 hc         1 TWT       0.036700
     29 H3C2        -1.0290     0.8430    10.8080 hc         1 TWT       0.036700
     30 H4C1         1.1270     0.8830     9.5340 hc         1 TWT       0.036700
     31 H4C2         1.1570    -0.8680     9.5300 hc         1 TWT       0.036700
     32 H5C1        -1.0090    -0.8960     8.2660 hc         1 TWT       0.036700
     33 H5C2        -1.0250     0.8550     8.2610 hc         1 TWT       0.036700
     34 H6C1         1.1290     0.8700     6.9820 hc         1 TWT       0.036950
     35 H6C2         1.1430    -0.8810     6.9850 hc         1 TWT       0.036950
     36 H7C1        -1.0210    -0.8980     5.7230 hc         1 TWT       0.036700
     37 H7C2        -1.0330     0.8520     5.7200 hc         1 TWT       0.036700
     38 H8C1         1.1160     0.8660     4.4340 hc         1 TWT       0.036700
     39 H8C2         1.1290    -0.8850     4.4380 hc         1 TWT       0.036700
     40 H9C1        -1.0330    -0.9070     3.1770 hc         1 TWT       0.036700
     41 H9C2        -1.0520     0.8440     3.1780 hc         1 TWT       0.036700
     42 H101         1.0940     0.8700     1.8890 hc         1 TWT       0.036950
     43 H102         1.1160    -0.8810     1.8890 hc         1 TWT       0.036950
     44 H111        -1.0510    -0.9070     0.6330 hc         1 TWT       0.036700
     45 H112        -1.0720     0.8430     0.6330 hc         1 TWT       0.036700
     46 H121         1.0740     0.8700    -0.6560 hc         1 TWT       0.036700
     47 H122         1.0970    -0.8800    -0.6560 hc         1 TWT       0.036700
     48 H131        -1.0690    -0.9090    -1.9130 hc         1 TWT       0.036950
     49 H132        -1.0920     0.8420    -1.9120 hc         1 TWT       0.036950
     50 H141         1.0560     0.8690    -3.2000 hc         1 TWT       0.036700
     51 H142         1.0770    -0.8810    -3.2010 hc         1 TWT       0.036700
     52 H151        -1.0890    -0.9060    -4.4600 hc         1 TWT       0.036700
     53 H152        -1.1090     0.8450    -4.4580 hc         1 TWT       0.036700
     54 H161         1.0400     0.8720    -5.7440 hc         1 TWT       0.036700
     55 H162         1.0620    -0.8790    -5.7440 hc         1 TWT       0.036700
     56 H171        -1.1000    -0.9080    -7.0070 hc         1 TWT       0.036950
     57 H172        -1.1250     0.8430    -7.0060 hc         1 TWT       0.036950
     58 H181         1.0280     0.8740    -8.2860 hc         1 TWT       0.036700
     59 H182         1.0530    -0.8760    -8.2870 hc         1 TWT       0.036700
     60 H191        -1.1060    -0.9070    -9.5560 hc         1 TWT       0.036700
     61 H192        -1.1310     0.8430    -9.5550 hc         1 TWT       0.036700
     62 H201         1.0270     0.8740   -10.8270 hc         1 TWT       0.036700
     63 H202         1.0490    -0.8760   -10.8300 hc         1 TWT       0.036700
     64 H211        -1.1050    -0.9000   -12.1060 hc         1 TWT       0.036700
     65 H212        -1.1240     0.8490   -12.1050 hc         1 TWT       0.036700
     66 H221        -0.2140    -0.0140   -14.2680 hc         1 TWT       0.031367
     67 H222         1.0320     0.8800   -13.4010 hc         1 TWT       0.031367
     68 H223         1.0520    -0.8810   -13.4030 hc         1 TWT       0.031367
@<TRIPOS>BOND
     1     1     2 1   
     2     1    23 1   
     3     1    24 1   
     4     1    25 1   
     5     2     3 1   
     6     2    26 1   
     7     2    27 1   
     8     3     4 1   
     9     3    28 1   
    10     3    29 1   
    11     4     5 1   
    12     4    30 1   
    13     4    31 1   
    14     5     6 1   
    15     5    32 1   
    16     5    33 1   
    17     6     7 1   
    18     6    34 1   
    19     6    35 1   
    20     7     8 1   
    21     7    36 1   
    22     7    37 1   
    23     8     9 1   
    24     8    38 1   
    25     8    39 1   
    26     9    10 1   
    27     9    40 1   
    28     9    41 1   
    29    10    11 1   
    30    10    42 1   
    31    10    43 1   
    32    11    12 1   
    33    11    44 1   
    34    11    45 1   
    35    12    13 1   
    36    12    46 1   
    37    12    47 1   
    38    13    14 1   
    39    13    48 1   
    40    13    49 1   
    41    14    15 1   
    42    14    50 1   
    43    14    51 1   
    44    15    16 1   
    45    15    52 1   
    46    15    53 1   
    47    16    17 1   
    48    16    54 1   
    49    16    55 1   
    50    17    18 1   
    51    17    56 1   
    52    17    57 1   
    53    18    19 1   
    54    18    58 1   
    55    18    59 1   
    56    19    20 1   
    57    19    60 1   
    58    19    61 1   
    59    20    21 1   
    60    20    62 1   
    61    20    63 1   
    62    21    22 1   
    63    21    64 1   
    64    21    65 1   
    65    22    66 1   
    66    22    67 1   
    67    22    68 1   
@<TRIPOS>SUBSTRUCTURE
     1 TWT         1 TEMP              0 ****  ****    0 ROOT
