@<TRIPOS>MOLECULE
TWT
   68    67     1     0     0
SMALL
No Charge or Current Charge


@<TRIPOS>ATOM
      1 C1          -0.3560    -0.0230    13.5130 c3         1 TWT      -0.088100
      2 C2           0.4880    -0.0120    12.2240 c3         1 TWT      -0.075400
      3 C3          -0.3690    -0.0220    10.9390 c3         1 TWT      -0.075900
      4 C4           0.4780    -0.0110     9.6480 c3         1 TWT      -0.074400
      5 C5          -0.3800    -0.0220     8.3630 c3         1 TWT      -0.074400
      6 C6           0.4670    -0.0110     7.0710 c3         1 TWT      -0.074400
      7 C7          -0.3900    -0.0220     5.7870 c3         1 TWT      -0.074400
      8 C8           0.4560    -0.0110     4.4950 c3         1 TWT      -0.074400
      9 C9          -0.4010    -0.0220     3.2110 c3         1 TWT      -0.074400
     10 C10          0.4460    -0.0120     1.9190 c3         1 TWT      -0.074400
     11 C11         -0.4110    -0.0230     0.6340 c3         1 TWT      -0.074400
     12 C12          0.4350    -0.0120    -0.6570 c3         1 TWT      -0.074400
     13 C13         -0.4220    -0.0230    -1.9420 c3         1 TWT      -0.074400
     14 C14          0.4250    -0.0130    -3.2340 c3         1 TWT      -0.074400
     15 C15         -0.4320    -0.0230    -4.5180 c3         1 TWT      -0.074400
     16 C16          0.4140    -0.0120    -5.8100 c3         1 TWT      -0.074400
     17 C17         -0.4430    -0.0230    -7.0940 c3         1 TWT      -0.074400
     18 C18          0.4030    -0.0120    -8.3860 c3         1 TWT      -0.074400
     19 C19         -0.4540    -0.0210    -9.6710 c3         1 TWT      -0.074400
     20 C20          0.3920    -0.0100   -10.9620 c3         1 TWT      -0.075900
     21 C21         -0.4650    -0.0200   -12.2470 c3         1 TWT      -0.075400
     22 C22          0.3790    -0.0080   -13.5360 c3         1 TWT      -0.088100
     23 H1C1         0.2940    -0.0150    14.3960 hc         1 TWT       0.031367
     24 H1C2        -1.0070     0.8580    13.5580 hc         1 TWT       0.031367
     25 H1C3        -0.9840    -0.9210    13.5580 hc         1 TWT       0.031367
     26 H2C1         1.1300     0.8790    12.2260 hc         1 TWT       0.036700
     27 H2C2         1.1530    -0.8850    12.2250 hc         1 TWT       0.036700
     28 H3C1        -1.0100    -0.9130    10.9420 hc         1 TWT       0.036700
     29 H3C2        -1.0330     0.8510    10.9420 hc         1 TWT       0.036700
     30 H4C1         1.1190     0.8790     9.6450 hc         1 TWT       0.036700
     31 H4C2         1.1420    -0.8840     9.6450 hc         1 TWT       0.036700
     32 H5C1        -1.0210    -0.9120     8.3660 hc         1 TWT       0.036700
     33 H5C2        -1.0440     0.8520     8.3660 hc         1 TWT       0.036700
     34 H6C1         1.1080     0.8790     7.0690 hc         1 TWT       0.036950
     35 H6C2         1.1310    -0.8840     7.0690 hc         1 TWT       0.036950
     36 H7C1        -1.0320    -0.9120     5.7900 hc         1 TWT       0.036700
     37 H7C2        -1.0540     0.8520     5.7890 hc         1 TWT       0.036700
     38 H8C1         1.0980     0.8790     4.4920 hc         1 TWT       0.036700
     39 H8C2         1.1200    -0.8850     4.4930 hc         1 TWT       0.036700
     40 H9C1        -1.0420    -0.9120     3.2130 hc         1 TWT       0.036700
     41 H9C2        -1.0650     0.8510     3.2130 hc         1 TWT       0.036700
     42 H101         1.0870     0.8790     1.9160 hc         1 TWT       0.036950
     43 H102         1.1100    -0.8850     1.9160 hc         1 TWT       0.036950
     44 H111        -1.0530    -0.9130     0.6370 hc         1 TWT       0.036700
     45 H112        -1.0750     0.8510     0.6370 hc         1 TWT       0.036700
     46 H121         1.0770     0.8780    -0.6600 hc         1 TWT       0.036700
     47 H122         1.0990    -0.8860    -0.6600 hc         1 TWT       0.036700
     48 H131        -1.0630    -0.9130    -1.9390 hc         1 TWT       0.036950
     49 H132        -1.0860     0.8500    -1.9390 hc         1 TWT       0.036950
     50 H141         1.0660     0.8770    -3.2360 hc         1 TWT       0.036700
     51 H142         1.0890    -0.8860    -3.2360 hc         1 TWT       0.036700
     52 H151        -1.0740    -0.9130    -4.5160 hc         1 TWT       0.036700
     53 H152        -1.0960     0.8500    -4.5150 hc         1 TWT       0.036700
     54 H161         1.0560     0.8770    -5.8120 hc         1 TWT       0.036700
     55 H162         1.0780    -0.8860    -5.8130 hc         1 TWT       0.036700
     56 H171        -1.0850    -0.9130    -7.0920 hc         1 TWT       0.036950
     57 H172        -1.1070     0.8510    -7.0910 hc         1 TWT       0.036950
     58 H181         1.0450     0.8780    -8.3880 hc         1 TWT       0.036700
     59 H182         1.0670    -0.8850    -8.3890 hc         1 TWT       0.036700
     60 H191        -1.0960    -0.9110    -9.6680 hc         1 TWT       0.036700
     61 H192        -1.1180     0.8520    -9.6670 hc         1 TWT       0.036700
     62 H201         1.0340     0.8800   -10.9650 hc         1 TWT       0.036700
     63 H202         1.0560    -0.8840   -10.9660 hc         1 TWT       0.036700
     64 H211        -1.1070    -0.9090   -12.2500 hc         1 TWT       0.036700
     65 H212        -1.1290     0.8540   -12.2480 hc         1 TWT       0.036700
     66 H221        -0.2710    -0.0150   -14.4190 hc         1 TWT       0.031367
     67 H222         1.0080     0.8900   -13.5800 hc         1 TWT       0.031367
     68 H223         1.0300    -0.8900   -13.5820 hc         1 TWT       0.031367
@<TRIPOS>BOND
     1     1     2 1   
     2     1    23 1   
     3     1    24 1   
     4     1    25 1   
     5     2     3 1   
     6     2    26 1   
     7     2    27 1   
     8     3     4 1   
     9     3    28 1   
    10     3    29 1   
    11     4     5 1   
    12     4    30 1   
    13     4    31 1   
    14     5     6 1   
    15     5    32 1   
    16     5    33 1   
    17     6     7 1   
    18     6    34 1   
    19     6    35 1   
    20     7     8 1   
    21     7    36 1   
    22     7    37 1   
    23     8     9 1   
    24     8    38 1   
    25     8    39 1   
    26     9    10 1   
    27     9    40 1   
    28     9    41 1   
    29    10    11 1   
    30    10    42 1   
    31    10    43 1   
    32    11    12 1   
    33    11    44 1   
    34    11    45 1   
    35    12    13 1   
    36    12    46 1   
    37    12    47 1   
    38    13    14 1   
    39    13    48 1   
    40    13    49 1   
    41    14    15 1   
    42    14    50 1   
    43    14    51 1   
    44    15    16 1   
    45    15    52 1   
    46    15    53 1   
    47    16    17 1   
    48    16    54 1   
    49    16    55 1   
    50    17    18 1   
    51    17    56 1   
    52    17    57 1   
    53    18    19 1   
    54    18    58 1   
    55    18    59 1   
    56    19    20 1   
    57    19    60 1   
    58    19    61 1   
    59    20    21 1   
    60    20    62 1   
    61    20    63 1   
    62    21    22 1   
    63    21    64 1   
    64    21    65 1   
    65    22    66 1   
    66    22    67 1   
    67    22    68 1   
@<TRIPOS>SUBSTRUCTURE
     1 TWT         1 TEMP              0 ****  ****    0 ROOT
