@<TRIPOS>MOLECULE
TWU
   62    66     1     0     0
SMALL
abcg2


@<TRIPOS>ATOM
      1 C15         -2.7220    -9.7680    55.9610 c2         1 TWU       0.708800
      2 C19         -5.5340   -12.7270    58.9970 ca         1 TWU      -0.070000
      3 C23         -6.3310    -9.5900    61.8410 ca         1 TWU       0.187000
      4 C24         -7.4660   -10.3480    62.1270 ca         1 TWU       0.075900
      5 C26         -7.3090    -9.8330    64.3360 ca         1 TWU       0.146300
      6 C32         -5.4740   -10.0770    58.2670 ca         1 TWU       0.078000
      7 C02          1.3020   -11.8920    57.1660 c6         1 TWU       0.172300
      8 C03          0.0980   -11.7750    56.2350 c6         1 TWU      -0.127400
      9 C04         -1.1230   -11.3240    57.0290 c6         1 TWU       0.120700
     10 C05         -1.3580   -12.2400    58.2270 c6         1 TWU      -0.125400
     11 C06         -0.0700   -12.2980    59.0360 c6         1 TWU       0.159600
     12 C09         -2.9990   -12.1640    55.6570 c          1 TWU       0.579000
     13 C11         -4.3410   -11.8410    55.0530 c6         1 TWU      -0.175400
     14 C12         -4.9980   -10.6840    55.8040 c6         1 TWU       0.323500
     15 C13         -6.3030   -10.3000    55.1130 c3         1 TWU      -0.097100
     16 C17         -5.2640   -11.0400    57.2790 ca         1 TWU      -0.060300
     17 C18         -5.3320   -12.3760    57.6720 ca         1 TWU      -0.134000
     18 C20         -5.6760   -11.7600    59.9690 ca         1 TWU      -0.160000
     19 C21         -5.6700   -10.4100    59.6180 ca         1 TWU       0.322000
     20 C28         -5.7560    -8.9520    62.9350 ca         1 TWU       0.075900
     21 C29         -7.8290    -9.9720    65.7100 cx         1 TWU      -0.188000
     22 C30         -9.3110   -10.1080    65.9440 cx         1 TWU      -0.106900
     23 C31         -8.4240   -11.2810    66.1610 cx         1 TWU      -0.106900
     24 N08         -2.3270   -11.1020    56.2170 n          1 TWU      -0.392300
     25 N14         -4.0330    -9.6170    55.6630 nu         1 TWU      -0.932400
     26 N16         -1.9560    -8.7480    55.9890 n2         1 TWU      -0.892100
     27 N22         -5.8380    -9.4090    60.5580 nu         1 TWU      -0.978000
     28 N25         -7.9360   -10.4760    63.3530 nb         1 TWU      -0.157500
     29 N27         -6.2400    -9.0630    64.1620 nb         1 TWU      -0.157500
     30 O07          1.0180   -12.7460    58.2590 os         1 TWU      -0.449000
     31 O10         -2.5520   -13.2920    55.6630 o          1 TWU      -0.531000
     32 H1          -5.5570   -13.7720    59.2760 ha         1 TWU       0.124000
     33 H2          -8.0050   -10.8630    61.3380 h4         1 TWU       0.029600
     34 H6           1.5360   -10.8850    57.5500 h1         1 TWU       0.026700
     35 H7           0.3230   -11.0490    55.4490 hc         1 TWU       0.066200
     36 H8          -0.0870   -12.7380    55.7550 hc         1 TWU       0.066200
     37 H9          -0.8880   -10.3470    57.4580 h1         1 TWU       0.049700
     38 H10         -2.1630   -11.8450    58.8520 hc         1 TWU       0.068200
     39 H11         -1.6380   -13.2460    57.9160 hc         1 TWU       0.068200
     40 H12         -0.1750   -12.9930    59.8700 h1         1 TWU       0.044200
     41 H13          0.1460   -11.3060    59.4590 h1         1 TWU       0.044200
     42 H14         -4.1990   -11.5240    54.0160 hc         1 TWU       0.085200
     43 H15         -4.9420   -12.7470    55.0180 hc         1 TWU       0.085200
     44 H16         -6.7710    -9.4330    55.5790 hc         1 TWU       0.054367
     45 H17         -6.1230   -10.0700    54.0620 hc         1 TWU       0.054367
     46 H18         -7.0030   -11.1310    55.1680 hc         1 TWU       0.054367
     47 H19         -5.2200   -13.1690    56.9490 ha         1 TWU       0.127000
     48 H20         -5.7850   -12.0540    61.0050 ha         1 TWU       0.128000
     49 H21         -4.8800    -8.3230    62.8030 h4         1 TWU       0.029600
     50 H22         -7.2670    -9.4120    66.4460 hc         1 TWU       0.101700
     51 H23         -9.7210    -9.5990    66.8060 hc         1 TWU       0.078450
     52 H24         -9.9500   -10.1100    65.0710 hc         1 TWU       0.078450
     53 H25         -8.4580   -12.0850    65.4370 hc         1 TWU       0.078450
     54 H26         -8.2140   -11.5930    67.1760 hc         1 TWU       0.078450
     55 H27         -4.3350    -8.6780    55.4650 hn         1 TWU       0.520000
     56 H28         -0.9810    -8.9860    56.1030 hn         1 TWU       0.401400
     57 H29         -5.3420    -8.5460    60.3980 hn         1 TWU       0.507000
     58 CL33        -5.5400    -8.3810    57.8850 cl         1 TWU      -0.203000
     59 C01          2.5190   -12.4400    56.4500 c3         1 TWU      -0.087100
     60 H3           3.3800   -12.4960    57.1160 hc         1 TWU       0.045033
     61 H4           2.3230   -13.4380    56.0540 hc         1 TWU       0.045033
     62 H5           2.7860   -11.7930    55.6140 hc         1 TWU       0.045033
@<TRIPOS>BOND
     1     1    24 1   
     2     1    25 1   
     3     1    26 2   
     4     2    17 ar  
     5     2    18 ar  
     6     2    32 1   
     7     3     4 ar  
     8     3    20 ar  
     9     3    27 1   
    10     4    28 ar  
    11     4    33 1   
    12     5    21 1   
    13     5    28 ar  
    14     5    29 ar  
    15     6    16 ar  
    16     6    19 ar  
    17     6    58 1   
    18     7     8 1   
    19     7    30 1   
    20     7    34 1   
    21     7    59 1   
    22     8     9 1   
    23     8    35 1   
    24     8    36 1   
    25     9    10 1   
    26     9    24 1   
    27     9    37 1   
    28    10    11 1   
    29    10    38 1   
    30    10    39 1   
    31    11    30 1   
    32    11    40 1   
    33    11    41 1   
    34    12    13 1   
    35    12    24 1   
    36    12    31 2   
    37    13    14 1   
    38    13    42 1   
    39    13    43 1   
    40    14    15 1   
    41    14    16 1   
    42    14    25 1   
    43    15    44 1   
    44    15    45 1   
    45    15    46 1   
    46    16    17 ar  
    47    17    47 1   
    48    18    19 ar  
    49    18    48 1   
    50    19    27 1   
    51    20    29 ar  
    52    20    49 1   
    53    21    22 1   
    54    21    23 1   
    55    21    50 1   
    56    22    23 1   
    57    22    51 1   
    58    22    52 1   
    59    23    53 1   
    60    23    54 1   
    61    25    55 1   
    62    26    56 1   
    63    27    57 1   
    64    59    60 1   
    65    59    61 1   
    66    59    62 1   
@<TRIPOS>SUBSTRUCTURE
     1 TWU         1 TEMP              0 ****  ****    0 ROOT
