@<TRIPOS>MOLECULE
TWU
   62    66     1     0     0
SMALL
No Charge or Current Charge


@<TRIPOS>ATOM
      1 C15         -2.7050    -9.7730    55.9880 c2         1 TWU       0.708800
      2 C19         -5.1690   -13.0670    59.1370 ca         1 TWU      -0.070000
      3 C23         -6.5230    -9.9640    62.1250 ca         1 TWU       0.187000
      4 C24         -7.3820   -11.0300    62.4840 ca         1 TWU       0.075900
      5 C26         -7.7210   -10.0820    64.5510 ca         1 TWU       0.146300
      6 C32         -5.4620   -10.3440    58.4930 ca         1 TWU       0.078000
      7 C02          1.6060   -11.7840    56.6740 c6         1 TWU       0.172300
      8 C03          0.3000   -11.6530    55.8510 c6         1 TWU      -0.127400
      9 C04         -0.8700   -11.2490    56.7820 c6         1 TWU       0.120700
     10 C05         -0.9750   -12.1740    58.0230 c6         1 TWU      -0.125400
     11 C06          0.4000   -12.2780    58.7210 c6         1 TWU       0.159600
     12 C09         -2.8820   -12.1440    55.5130 c          1 TWU       0.579000
     13 C11         -4.3050   -11.8800    55.0480 c6         1 TWU      -0.175400
     14 C12         -4.9650   -10.8300    55.9590 c6         1 TWU       0.323500
     15 C13         -6.3340   -10.4300    55.3430 c3         1 TWU      -0.097100
     16 C17         -5.1560   -11.2740    57.4500 ca         1 TWU      -0.060300
     17 C18         -5.0360   -12.6430    57.8080 ca         1 TWU      -0.134000
     18 C20         -5.4500   -12.1410    60.1460 ca         1 TWU      -0.160000
     19 C21         -5.6210   -10.7850    59.8350 ca         1 TWU       0.322000
     20 C28         -6.3420    -8.9550    63.0970 ca         1 TWU       0.075900
     21 C29         -8.3730   -10.1540    65.9010 cx         1 TWU      -0.188000
     22 C30         -9.2170    -9.0190    66.4420 cx         1 TWU      -0.106900
     23 C31         -9.8700   -10.3240    66.0570 cx         1 TWU      -0.106900
     24 N08         -2.1680   -11.0630    56.0660 n          1 TWU      -0.392300
     25 N14         -4.0450    -9.7100    55.8650 nu         1 TWU      -0.932400
     26 N16         -2.0710    -8.6830    55.9590 n2         1 TWU      -0.892100
     27 N22         -5.9060    -9.8610    60.8590 nu         1 TWU      -0.978000
     28 N25         -7.9760   -11.0940    63.6940 nb         1 TWU      -0.157500
     29 N27         -6.9310    -9.0130    64.3100 nb         1 TWU      -0.157500
     30 O07          1.4040   -12.7000    57.7710 os         1 TWU      -0.449000
     31 O10         -2.4280   -13.2790    55.4590 o          1 TWU      -0.531000
     32 H1          -5.0500   -14.1200    59.3850 ha         1 TWU       0.124000
     33 H2          -7.6180   -11.8360    61.7910 h4         1 TWU       0.029600
     34 H6           1.8910   -10.8020    57.0800 h1         1 TWU       0.026700
     35 H7           0.4300   -10.9030    55.0600 hc         1 TWU       0.066200
     36 H8           0.0860   -12.6070    55.3530 hc         1 TWU       0.066200
     37 H9          -0.5810   -10.2760    57.2030 h1         1 TWU       0.049700
     38 H10         -1.7230   -11.7820    58.7260 hc         1 TWU       0.068200
     39 H11         -1.3040   -13.1820    57.7410 hc         1 TWU       0.068200
     40 H12          0.3520   -13.0080    59.5410 h1         1 TWU       0.044200
     41 H13          0.6890   -11.3050    59.1460 h1         1 TWU       0.044200
     42 H14         -4.2140   -11.4350    54.0480 hc         1 TWU       0.085200
     43 H15         -4.8730   -12.8120    54.9370 hc         1 TWU       0.085200
     44 H16         -6.8220    -9.6200    55.8940 hc         1 TWU       0.054367
     45 H17         -6.2260   -10.0960    54.3040 hc         1 TWU       0.054367
     46 H18         -7.0230   -11.2830    55.3450 hc         1 TWU       0.054367
     47 H19         -4.8300   -13.4100    57.0690 ha         1 TWU       0.127000
     48 H20         -5.5200   -12.4840    61.1730 ha         1 TWU       0.128000
     49 H21         -5.7100    -8.0900    62.9050 h4         1 TWU       0.029600
     50 H22         -7.7490   -10.6790    66.6210 hc         1 TWU       0.101700
     51 H23         -9.1350    -8.7860    67.5020 hc         1 TWU       0.078450
     52 H24         -9.3930    -8.1590    65.8000 hc         1 TWU       0.078450
     53 H25        -10.4820   -10.3340    65.1580 hc         1 TWU       0.078450
     54 H26        -10.2270   -10.9680    66.8570 hc         1 TWU       0.078450
     55 H27         -4.4030    -8.7760    56.0280 hn         1 TWU       0.520000
     56 H28         -1.0700    -8.9030    56.0090 hn         1 TWU       0.401400
     57 H29         -5.6700    -8.9010    60.5900 hn         1 TWU       0.507000
     58 Cl33        -5.6750    -8.6010    58.1820 cl         1 TWU      -0.203000
     59 C01          2.7830   -12.3300    55.8320 c3         1 TWU      -0.087100
     60 H3           3.6940   -12.4120    56.4380 hc         1 TWU       0.045033
     61 H4           2.5570   -13.3220    55.4250 hc         1 TWU       0.045033
     62 H5           3.0050   -11.6640    54.9900 hc         1 TWU       0.045033
@<TRIPOS>BOND
     1     1    24 1   
     2     1    25 1   
     3     1    26 2   
     4     2    17 ar  
     5     2    18 ar  
     6     2    32 1   
     7     3     4 ar  
     8     3    20 ar  
     9     3    27 1   
    10     4    28 ar  
    11     4    33 1   
    12     5    21 1   
    13     5    28 ar  
    14     5    29 ar  
    15     6    16 ar  
    16     6    19 ar  
    17     6    58 1   
    18     7     8 1   
    19     7    30 1   
    20     7    34 1   
    21     7    59 1   
    22     8     9 1   
    23     8    35 1   
    24     8    36 1   
    25     9    10 1   
    26     9    24 1   
    27     9    37 1   
    28    10    11 1   
    29    10    38 1   
    30    10    39 1   
    31    11    30 1   
    32    11    40 1   
    33    11    41 1   
    34    12    13 1   
    35    12    24 1   
    36    12    31 2   
    37    13    14 1   
    38    13    42 1   
    39    13    43 1   
    40    14    15 1   
    41    14    16 1   
    42    14    25 1   
    43    15    44 1   
    44    15    45 1   
    45    15    46 1   
    46    16    17 ar  
    47    17    47 1   
    48    18    19 ar  
    49    18    48 1   
    50    19    27 1   
    51    20    29 ar  
    52    20    49 1   
    53    21    22 1   
    54    21    23 1   
    55    21    50 1   
    56    22    23 1   
    57    22    51 1   
    58    22    52 1   
    59    23    53 1   
    60    23    54 1   
    61    25    55 1   
    62    26    56 1   
    63    27    57 1   
    64    59    60 1   
    65    59    61 1   
    66    59    62 1   
@<TRIPOS>SUBSTRUCTURE
     1 TWU         1 TEMP              0 ****  ****    0 ROOT
