@<TRIPOS>MOLECULE
TWV
   48    50     1     0     0
SMALL
bcc


@<TRIPOS>ATOM
      1 C10        -28.4590   -42.1860    33.8070 cc         1 TWV      -0.103100
      2 C13        -29.8380   -41.3660    30.7140 c3         1 TWV       0.164800
      3 C15        -29.8870   -41.4410    28.3330 c3         1 TWV       0.150100
      4 C17        -29.5320   -40.2270    33.8070 ca         1 TWV      -0.095800
      5 C20        -29.1350   -37.9820    35.4010 ca         1 TWV      -0.112000
      6 C21        -30.1440   -37.9950    34.4240 ca         1 TWV      -0.158000
      7 C22        -30.3480   -39.1050    33.6270 ca         1 TWV      -0.080000
      8 C24        -23.1890   -40.4730    35.5780 ca         1 TWV      -0.087500
      9 C04        -23.0340   -40.0190    34.2690 ca         1 TWV      -0.151600
     10 C05        -24.1020   -40.1360    33.3850 ca         1 TWV      -0.087500
     11 C06        -25.3080   -40.6730    33.8020 ca         1 TWV      -0.125000
     12 C07        -25.4670   -41.1230    35.1090 ca         1 TWV      -0.090300
     13 C11        -29.4660   -41.5140    33.1790 cd         1 TWV      -0.135400
     14 C12        -30.2950   -41.9920    32.0330 c3         1 TWV      -0.002200
     15 C18        -28.5320   -40.1970    34.8030 ca         1 TWV      -0.044200
     16 C19        -28.3170   -39.0770    35.6050 ca         1 TWV      -0.143000
     17 C23        -24.3950   -41.0170    35.9890 ca         1 TWV      -0.125000
     18 N02        -21.0340   -38.7820    34.6720 ns         1 TWV      -0.460400
     19 N09        -27.8990   -41.4100    34.7920 na         1 TWV      -0.065400
     20 N14        -30.5220   -41.8980    29.5500 n3         1 TWV      -0.715600
     21 O01        -19.7800   -38.3490    34.3780 oh         1 TWV      -0.374100
     22 O25        -21.4090   -39.5720    32.5910 o          1 TWV      -0.570100
     23 H1         -28.0900   -43.1850    33.6320 h4         1 TWV       0.164000
     24 H2         -28.7700   -41.5670    30.5970 h1         1 TWV       0.033200
     25 H3         -29.9400   -40.2670    30.7780 h1         1 TWV       0.033200
     26 H4         -28.8310   -41.7190    28.3330 h1         1 TWV       0.029367
     27 H5         -30.3560   -41.9090    27.4660 h1         1 TWV       0.029367
     28 H6         -29.9430   -40.3500    28.1950 h1         1 TWV       0.029367
     29 H7         -28.9940   -37.0960    36.0070 ha         1 TWV       0.127000
     30 H8         -30.7670   -37.1190    34.2950 ha         1 TWV       0.128000
     31 H9         -31.1280   -39.1060    32.8750 ha         1 TWV       0.132000
     32 H10        -22.3710   -40.4270    36.2850 ha         1 TWV       0.144500
     33 H11        -23.9950   -39.7970    32.3630 ha         1 TWV       0.144500
     34 H12        -26.1270   -40.7370    33.0970 ha         1 TWV       0.142500
     35 H13        -26.9320   -41.4910    36.6280 h1         1 TWV       0.067700
     36 H14        -26.6500   -42.8460    35.5640 h1         1 TWV       0.067700
     37 H15        -31.3460   -41.7580    32.2200 hc         1 TWV       0.051200
     38 H16        -30.2250   -43.0800    31.9480 hc         1 TWV       0.051200
     39 H17        -32.4480   -42.0260    30.3870 h1         1 TWV       0.029367
     40 H18        -32.1320   -40.4940    29.5560 h1         1 TWV       0.029367
     41 H19        -32.3940   -41.9820    28.6340 h1         1 TWV       0.029367
     42 H20        -27.5400   -39.0550    36.3590 ha         1 TWV       0.132000
     43 H21        -24.4980   -41.3680    37.0090 ha         1 TWV       0.142500
     44 H22        -21.3300   -38.6350    35.6250 hn         1 TWV       0.341500
     45 H24        -19.8720   -37.4500    34.0340 ho         1 TWV       0.401000
     46 C08        -26.7520   -41.7590    35.5840 c3         1 TWV       0.094600
     47 C03        -21.7530   -39.4530    33.7550 c          1 TWV       0.686700
     48 C16        -31.9340   -41.5780    29.5370 c3         1 TWV       0.150100
@<TRIPOS>BOND
     1     1    13 2   
     2     1    19 1   
     3     1    23 1   
     4     2    14 1   
     5     2    20 1   
     6     2    24 1   
     7     2    25 1   
     8     3    20 1   
     9     3    26 1   
    10     3    27 1   
    11     3    28 1   
    12     4     7 ar  
    13     4    13 1   
    14     4    15 ar  
    15     5     6 ar  
    16     5    16 ar  
    17     5    29 1   
    18     6     7 ar  
    19     6    30 1   
    20     7    31 1   
    21     8     9 ar  
    22     8    17 ar  
    23     8    32 1   
    24     9    10 ar  
    25     9    47 1   
    26    10    11 ar  
    27    10    33 1   
    28    11    12 ar  
    29    11    34 1   
    30    12    17 ar  
    31    12    46 1   
    32    13    14 1   
    33    14    37 1   
    34    14    38 1   
    35    15    16 ar  
    36    15    19 1   
    37    16    42 1   
    38    17    43 1   
    39    18    21 1   
    40    18    44 1   
    41    18    47 1   
    42    19    46 1   
    43    20    48 1   
    44    21    45 1   
    45    22    47 2   
    46    35    46 1   
    47    36    46 1   
    48    39    48 1   
    49    40    48 1   
    50    41    48 1   
@<TRIPOS>SUBSTRUCTURE
     1 TWV         1 TEMP              0 ****  ****    0 ROOT
