@<TRIPOS>MOLECULE
TWV
   48    50     1     0     0
SMALL
No Charge or Current Charge


@<TRIPOS>ATOM
      1 C10        -28.4300   -42.3270    33.6800 cc         1 TWV      -0.153100
      2 C13        -30.0170   -41.4070    30.6550 c3         1 TWV       0.164800
      3 C15        -30.2480   -41.4630    28.2060 c3         1 TWV       0.150100
      4 C17        -29.4720   -40.2580    33.7440 ca         1 TWV      -0.095800
      5 C20        -29.0080   -37.9800    35.2670 ca         1 TWV      -0.094000
      6 C21        -30.0540   -37.9930    34.3120 ca         1 TWV      -0.140000
      7 C22        -30.2960   -39.1440    33.5330 ca         1 TWV      -0.062000
      8 C24        -23.2610   -40.0480    35.7040 ca         1 TWV      -0.069500
      9 C04        -22.9370   -39.8330    34.3420 ca         1 TWV      -0.151600
     10 C05        -23.8550   -40.2720    33.3600 ca         1 TWV      -0.069500
     11 C06        -25.0550   -40.9050    33.7240 ca         1 TWV      -0.107000
     12 C07        -25.3710   -41.1120    35.0800 ca         1 TWV      -0.090300
     13 C11        -29.4490   -41.5630    33.1210 cd         1 TWV      -0.135400
     14 C12        -30.3810   -42.0200    32.0270 c3         1 TWV      -0.002200
     15 C18        -28.4630   -40.2530    34.6680 ca         1 TWV      -0.044200
     16 C19        -28.1970   -39.1200    35.4540 ca         1 TWV      -0.125000
     17 C23        -24.4630   -40.6810    36.0640 ca         1 TWV      -0.107000
     18 N02        -20.7580   -38.8030    34.9190 ns         1 TWV      -0.393400
     19 N09        -27.8320   -41.4890    34.6410 na         1 TWV      -0.094700
     20 N14        -30.8090   -41.9110    29.5000 n3         1 TWV      -0.715600
     21 O01        -19.4060   -38.3810    34.6070 oh         1 TWV      -0.413100
     22 O25        -21.4110   -38.9070    32.7330 o          1 TWV      -0.570100
     23 H1         -28.0960   -43.3390    33.4780 h4         1 TWV       0.214000
     24 H2         -28.9530   -41.6200    30.4780 h1         1 TWV       0.033200
     25 H3         -30.1120   -40.3150    30.7230 h1         1 TWV       0.033200
     26 H4         -29.1950   -41.7600    28.1150 h1         1 TWV       0.029367
     27 H5         -30.7970   -41.9120    27.3680 h1         1 TWV       0.029367
     28 H6         -30.3070   -40.3700    28.1110 h1         1 TWV       0.029367
     29 H7         -28.8290   -37.0860    35.8610 ha         1 TWV       0.109000
     30 H8         -30.6730   -37.1090    34.1760 ha         1 TWV       0.110000
     31 H9         -31.0950   -39.1650    32.7960 ha         1 TWV       0.114000
     32 H10        -22.5960   -39.7250    36.5010 ha         1 TWV       0.126500
     33 H11        -23.6400   -40.1250    32.3030 ha         1 TWV       0.126500
     34 H12        -25.7370   -41.2340    32.9430 ha         1 TWV       0.124500
     35 H13        -26.9230   -41.5210    36.5290 h1         1 TWV       0.067700
     36 H14        -26.5150   -42.8850    35.4860 h1         1 TWV       0.067700
     37 H15        -31.4090   -41.7500    32.2940 hc         1 TWV       0.051200
     38 H16        -30.3550   -43.1140    31.9460 hc         1 TWV       0.051200
     39 H17        -32.7010   -42.1010    30.4840 h1         1 TWV       0.029367
     40 H18        -32.4420   -40.5420    29.6610 h1         1 TWV       0.029367
     41 H19        -32.7920   -42.0110    28.7200 h1         1 TWV       0.029367
     42 H20        -27.3910   -39.1140    36.1850 ha         1 TWV       0.114000
     43 H21        -24.6890   -40.8350    37.1170 ha         1 TWV       0.124500
     44 H22        -20.9070   -39.1600    35.8590 hn         1 TWV       0.341500
     45 H24        -19.2970   -37.5500    35.1270 ho         1 TWV       0.440000
     46 C08        -26.6720   -41.8000    35.4980 c3         1 TWV       0.123900
     47 C03        -21.6510   -39.1530    33.9100 c          1 TWV       0.619700
     48 C16        -32.2600   -41.6240    29.5990 c3         1 TWV       0.150100
@<TRIPOS>BOND
     1     1    13 2   
     2     1    19 1   
     3     1    23 1   
     4     2    14 1   
     5     2    20 1   
     6     2    24 1   
     7     2    25 1   
     8     3    20 1   
     9     3    26 1   
    10     3    27 1   
    11     3    28 1   
    12     4     7 ar  
    13     4    13 1   
    14     4    15 ar  
    15     5     6 ar  
    16     5    16 ar  
    17     5    29 1   
    18     6     7 ar  
    19     6    30 1   
    20     7    31 1   
    21     8     9 ar  
    22     8    17 ar  
    23     8    32 1   
    24     9    10 ar  
    25     9    47 1   
    26    10    11 ar  
    27    10    33 1   
    28    11    12 ar  
    29    11    34 1   
    30    12    17 ar  
    31    12    46 1   
    32    13    14 1   
    33    14    37 1   
    34    14    38 1   
    35    15    16 ar  
    36    15    19 1   
    37    16    42 1   
    38    17    43 1   
    39    18    21 1   
    40    18    44 1   
    41    18    47 1   
    42    19    46 1   
    43    20    48 1   
    44    21    45 1   
    45    22    47 2   
    46    35    46 1   
    47    36    46 1   
    48    39    48 1   
    49    40    48 1   
    50    41    48 1   
@<TRIPOS>SUBSTRUCTURE
     1 TWV         1 TEMP              0 ****  ****    0 ROOT
