@<TRIPOS>MOLECULE
TWX
   37    39     1     0     0
SMALL
abcg2


@<TRIPOS>ATOM
      1 C10         -0.1650     9.1290     8.3930 c3         1 TWX       0.154300
      2 C13         -2.3590     8.7250     6.5990 ca         1 TWX      -0.123500
      3 C15         -4.6740     9.2420     6.0690 ca         1 TWX       0.246000
      4 C17         -4.6380    10.2260     7.0620 ca         1 TWX      -0.141000
      5 C02         -0.6970     3.7360    10.9710 c5         1 TWX       0.140300
      6 C03         -0.7680     4.2990     9.5470 c5         1 TWX       0.043300
      7 C04         -2.1310     3.7790     9.0690 c5         1 TWX       0.135800
      8 C06         -2.1850     3.6390    11.3970 c5         1 TWX       0.114800
      9 C08         -0.2190     6.5480     8.5830 cc         1 TWX      -0.197000
     10 C09         -0.5050     7.8170     9.0170 cd         1 TWX       0.155300
     11 C12         -2.3400     9.7010     7.5880 ca         1 TWX       0.100100
     12 C14         -3.5110     8.5020     5.8540 ca         1 TWX      -0.141000
     13 C18         -3.4940    10.4480     7.8090 ca         1 TWX      -0.123500
     14 N05         -3.0140     3.8850    10.2160 n7         1 TWX      -0.829400
     15 N07         -0.7240     5.7500     9.5380 na         1 TWX       0.128800
     16 N19         -1.1630     7.7130    10.1910 nd         1 TWX      -0.325000
     17 N20         -1.2980     6.4670    10.4890 nc         1 TWX      -0.221800
     18 O11         -1.2600    10.0170     8.3550 os         1 TWX      -0.330100
     19 H1           0.2690     8.9660     7.4010 h1         1 TWX       0.059700
     20 H2           0.5920     9.6440     8.9870 h1         1 TWX       0.059700
     21 H3          -1.4880     8.1220     6.3770 ha         1 TWX       0.118000
     22 H4          -5.5200    10.8250     7.2580 ha         1 TWX       0.111000
     23 H5          -0.1280     4.3900    11.6410 h1         1 TWX       0.068700
     24 H6           0.0660     3.9560     8.9350 h1         1 TWX       0.095700
     25 H7          -2.5210     4.3230     8.2080 h1         1 TWX       0.073200
     26 H8          -2.0100     2.7340     8.7740 h1         1 TWX       0.073200
     27 H9          -2.4220     4.3590    12.1790 h1         1 TWX       0.061700
     28 H10         -2.3760     2.6420    11.8050 h1         1 TWX       0.061700
     29 H11          0.2840     6.1730     7.7070 h4         1 TWX       0.168000
     30 H12         -3.4980     7.7310     5.0920 ha         1 TWX       0.111000
     31 H13         -3.4940    11.2150     8.5730 ha         1 TWX       0.118000
     32 H14         -3.3790     4.8270    10.2620 hn         1 TWX       0.424000
     33 H16         -6.4750     9.7570     5.2970 hn         1 TWX       0.436500
     34 H17         -5.6980     8.5570     4.4600 hn         1 TWX       0.436500
     35 O01         -0.0800     2.4740    10.8500 oh         1 TWX      -0.662000
     36 N16         -5.8410     8.9750     5.3670 nv         1 TWX      -1.058000
     37 H18         -0.1630     2.0110    11.6890 ho         1 TWX       0.456000
@<TRIPOS>BOND
     1     1    10 1   
     2     1    18 1   
     3     1    19 1   
     4     1    20 1   
     5     2    11 ar  
     6     2    12 ar  
     7     2    21 1   
     8     3     4 ar  
     9     3    12 ar  
    10     3    36 1   
    11     4    13 ar  
    12     4    22 1   
    13     5     6 1   
    14     5     8 1   
    15     5    23 1   
    16     5    35 1   
    17     6     7 1   
    18     6    15 1   
    19     6    24 1   
    20     7    14 1   
    21     7    25 1   
    22     7    26 1   
    23     8    14 1   
    24     8    27 1   
    25     8    28 1   
    26     9    10 2   
    27     9    15 1   
    28     9    29 1   
    29    10    16 1   
    30    11    13 ar  
    31    11    18 1   
    32    12    30 1   
    33    13    31 1   
    34    14    32 1   
    35    15    17 1   
    36    16    17 2   
    37    33    36 1   
    38    34    36 1   
    39    35    37 1   
@<TRIPOS>SUBSTRUCTURE
     1 TWX         1 TEMP              0 ****  ****    0 ROOT
