@<TRIPOS>MOLECULE
TWX
   37    39     1     0     0
SMALL
No Charge or Current Charge


@<TRIPOS>ATOM
      1 C10         -0.1490     9.2270     8.5310 c3         1 TWX       0.154300
      2 C13         -2.2690     8.7890     6.5250 ca         1 TWX      -0.123500
      3 C15         -4.5530     9.2840     5.8250 ca         1 TWX       0.246000
      4 C17         -4.6380    10.2730     6.8170 ca         1 TWX      -0.141000
      5 C02         -0.6080     3.5730    10.7960 c5         1 TWX       0.140300
      6 C03         -1.0690     4.3650     9.5260 c5         1 TWX       0.043300
      7 C04         -2.5360     3.8740     9.3940 c5         1 TWX       0.135800
      8 C06         -1.9550     3.3140    11.5740 c5         1 TWX       0.114800
      9 C08         -0.4580     6.6530     8.6000 cc         1 TWX      -0.197000
     10 C09         -0.5270     7.9000     9.1570 cd         1 TWX       0.155300
     11 C12         -2.3570     9.7780     7.5310 ca         1 TWX       0.100100
     12 C14         -3.3680     8.5450     5.6800 ca         1 TWX      -0.141000
     13 C18         -3.5420    10.5210     7.6650 ca         1 TWX      -0.123500
     14 N05         -3.0480     3.9410    10.7820 n7         1 TWX      -0.829400
     15 N07         -0.9160     5.8290     9.5970 na         1 TWX       0.128800
     16 N19         -1.0010     7.7940    10.4500 nd         1 TWX      -0.325000
     17 N20         -1.2410     6.5390    10.7170 nc         1 TWX      -0.221800
     18 O11         -1.3150    10.0690     8.3910 os         1 TWX      -0.330100
     19 H1           0.3390     9.0600     7.5630 h1         1 TWX       0.059700
     20 H2           0.5850     9.7160     9.1830 h1         1 TWX       0.059700
     21 H3          -1.3630     8.2100     6.3780 ha         1 TWX       0.118000
     22 H4          -5.5500    10.8520     6.9350 ha         1 TWX       0.111000
     23 H5           0.0740     4.1870    11.4000 h1         1 TWX       0.068700
     24 H6          -0.4980     4.0240     8.6540 h1         1 TWX       0.095700
     25 H7          -3.1220     4.4990     8.7040 h1         1 TWX       0.073200
     26 H8          -2.5680     2.8410     9.0160 h1         1 TWX       0.073200
     27 H9          -1.9190     3.7280    12.5920 h1         1 TWX       0.061700
     28 H10         -2.1360     2.2340    11.6720 h1         1 TWX       0.061700
     29 H11         -0.1390     6.3090     7.6260 h4         1 TWX       0.168000
     30 H12         -3.2930     7.7810     4.9100 ha         1 TWX       0.111000
     31 H13         -3.6130    11.2880     8.4320 ha         1 TWX       0.118000
     32 H14         -3.0970     4.9370    11.0420 hn         1 TWX       0.424000
     33 H16         -6.4390     9.6480     5.0300 hn         1 TWX       0.436500
     34 H17         -5.5270     8.4050     4.2110 hn         1 TWX       0.436500
     35 O01          0.0460     2.3460    10.4340 oh         1 TWX      -0.662000
     36 N16         -5.6200     9.0440     4.9990 nv         1 TWX      -1.058000
     37 H18          0.3640     1.9300    11.2660 ho         1 TWX       0.456000
@<TRIPOS>BOND
     1     1    10 1   
     2     1    18 1   
     3     1    19 1   
     4     1    20 1   
     5     2    11 ar  
     6     2    12 ar  
     7     2    21 1   
     8     3     4 ar  
     9     3    12 ar  
    10     3    36 1   
    11     4    13 ar  
    12     4    22 1   
    13     5     6 1   
    14     5     8 1   
    15     5    23 1   
    16     5    35 1   
    17     6     7 1   
    18     6    15 1   
    19     6    24 1   
    20     7    14 1   
    21     7    25 1   
    22     7    26 1   
    23     8    14 1   
    24     8    27 1   
    25     8    28 1   
    26     9    10 2   
    27     9    15 1   
    28     9    29 1   
    29    10    16 1   
    30    11    13 ar  
    31    11    18 1   
    32    12    30 1   
    33    13    31 1   
    34    14    32 1   
    35    15    17 1   
    36    16    17 2   
    37    33    36 1   
    38    34    36 1   
    39    35    37 1   
@<TRIPOS>SUBSTRUCTURE
     1 TWX         1 TEMP              0 ****  ****    0 ROOT
