@<TRIPOS>MOLECULE
TWY
   20    20     1     0     0
SMALL
No Charge or Current Charge


@<TRIPOS>ATOM
      1 S4          18.1680    62.8890    26.5520 sh         1 TWY      -0.453800
      2 C4          19.8070    62.7890    25.6340 c6         1 TWY       0.013300
      3 C5          19.5840    62.8800    24.0980 c6         1 TWY       0.173600
      4 O5          20.8410    62.7230    23.3980 os         1 TWY      -0.435000
      5 C1          21.4810    61.4610    23.6410 c6         1 TWY       0.410300
      6 O1          22.6660    61.4280    22.8580 oh         1 TWY      -0.702000
      7 C2          21.8370    61.3300    25.1580 c6         1 TWY       0.104300
      8 O2          22.5060    60.0840    25.4580 oh         1 TWY      -0.724000
      9 C3          20.5260    61.4570    25.9840 c6         1 TWY       0.153300
     10 O3          20.8090    61.3860    27.3920 oh         1 TWY      -0.722000
     11 H4          20.4430    63.6320    25.9420 h1         1 TWY       0.090700
     12 H51         19.1520    63.8570    23.8380 h1         1 TWY       0.064700
     13 H52         18.8820    62.1000    23.7650 h1         1 TWY       0.064700
     14 H1          20.8120    60.6400    23.3400 h2         1 TWY       0.028700
     15 HO1         23.1920    60.7090    23.2780 ho         1 TWY       0.534000
     16 H2          22.4880    62.1760    25.4250 h1         1 TWY       0.066700
     17 HO2         22.3850    59.9640    26.4340 ho         1 TWY       0.527000
     18 H3          19.8590    60.6270    25.6990 h1         1 TWY       0.054700
     19 HO3         19.9810    61.6730    27.8450 ho         1 TWY       0.526000
     20 HS4         17.8260    64.1280    26.1140 hs         1 TWY       0.224800
@<TRIPOS>BOND
     1     1     2 1   
     2     1    20 1   
     3     2     3 1   
     4     2     9 1   
     5     2    11 1   
     6     3     4 1   
     7     3    12 1   
     8     3    13 1   
     9     4     5 1   
    10     5     6 1   
    11     5     7 1   
    12     5    14 1   
    13     6    15 1   
    14     7     8 1   
    15     7     9 1   
    16     7    16 1   
    17     8    17 1   
    18     9    10 1   
    19     9    18 1   
    20    10    19 1   
@<TRIPOS>SUBSTRUCTURE
     1 TWY         1 TEMP              0 ****  ****    0 ROOT
