@<TRIPOS>MOLECULE
TWY
   20    20     1     0     0
SMALL
bcc


@<TRIPOS>ATOM
      1 S4          18.1050    62.8640    26.3380 sh         1 TWY      -0.405900
      2 C4          19.7540    62.7880    25.5570 c6         1 TWY      -0.034600
      3 C5          19.6260    62.8210    24.0400 c6         1 TWY       0.150400
      4 O5          20.8900    62.6890    23.4290 os         1 TWY      -0.388600
      5 C1          21.5070    61.4720    23.7210 c6         1 TWY       0.363900
      6 O1          22.6910    61.4990    22.9970 oh         1 TWY      -0.579800
      7 C2          21.7570    61.3490    25.2270 c6         1 TWY       0.081100
      8 O2          22.3510    60.0930    25.4410 oh         1 TWY      -0.601800
      9 C3          20.4480    61.5000    25.9940 c6         1 TWY       0.130100
     10 O3          20.7540    61.4880    27.3640 oh         1 TWY      -0.599800
     11 H4          20.3300    63.6490    25.9060 h1         1 TWY       0.090700
     12 H51         19.2100    63.7730    23.7130 h1         1 TWY       0.064700
     13 H52         18.9460    62.0240    23.7090 h1         1 TWY       0.064700
     14 H1          20.8620    60.6320    23.3980 h2         1 TWY       0.028700
     15 HO1         23.1060    60.6320    23.0530 ho         1 TWY       0.435000
     16 H2          22.4310    62.1670    25.5220 h1         1 TWY       0.066700
     17 HO2         22.6930    60.0630    26.3390 ho         1 TWY       0.428000
     18 H3          19.7970    60.6500    25.7290 h1         1 TWY       0.054700
     19 HO3         19.9320    61.5920    27.8580 ho         1 TWY       0.427000
     20 HS4         18.0540    64.1870    26.5190 hs         1 TWY       0.224800
@<TRIPOS>BOND
     1     1     2 1   
     2     1    20 1   
     3     2     3 1   
     4     2     9 1   
     5     2    11 1   
     6     3     4 1   
     7     3    12 1   
     8     3    13 1   
     9     4     5 1   
    10     5     6 1   
    11     5     7 1   
    12     5    14 1   
    13     6    15 1   
    14     7     8 1   
    15     7     9 1   
    16     7    16 1   
    17     8    17 1   
    18     9    10 1   
    19     9    18 1   
    20    10    19 1   
@<TRIPOS>SUBSTRUCTURE
     1 TWY         1 TEMP              0 ****  ****    0 ROOT
