@<TRIPOS>MOLECULE
TWZ
   98   111     1     0     0
SMALL
abcg2


@<TRIPOS>ATOM
      1 O1          16.7860    16.6250    10.5620 o          1 TWZ      -0.731500
      2 C1          16.3550    15.7970     9.7410 c          1 TWZ       0.720000
      3 C2          17.2470    15.6620     8.4780 c3         1 TWZ      -0.081400
      4 N1          16.7680    14.6860     7.5290 na         1 TWZ       0.179800
      5 C3          15.7910    14.8290     6.6200 cc         1 TWZ      -0.172000
      6 C4          15.6600    13.5840     6.0550 cd         1 TWZ       0.203300
      7 C5          14.7470    13.0910     4.9830 c3         1 TWZ      -0.115700
      8 C6          13.7670    14.1340     4.4800 c3         1 TWZ       0.233600
      9 O2          14.4030    15.2730     3.9320 os         1 TWZ      -0.598400
     10 P1          14.8330    15.3690     2.3560 p5         1 TWZ       1.414800
     11 O3          13.9330    14.5090     1.5270 o          1 TWZ      -0.833500
     12 O4          15.0640    16.8160     2.0750 o          1 TWZ      -0.833500
     13 O5          16.3080    14.5930     2.4320 os         1 TWZ      -0.502500
     14 C7          17.4570    15.1080     1.9120 ca         1 TWZ       0.201100
     15 C8          18.5650    15.2960     2.7250 ca         1 TWZ      -0.109300
     16 C9          19.7910    15.7240     2.2160 ca         1 TWZ      -0.151800
     17 C10         19.9880    16.0080     0.8670 ca         1 TWZ       0.323100
     18 O6          21.1550    16.4780     0.4120 os         1 TWZ      -0.466500
     19 P2          22.2920    15.4320    -0.4380 p5         1 TWZ       1.266900
     20 O7          23.6090    15.9540     0.1070 o          1 TWZ      -0.908833
     21 O8          22.0420    15.7410    -1.9090 o          1 TWZ      -0.908833
     22 O9          21.8830    14.0390     0.0110 o          1 TWZ      -0.908833
     23 C11         18.8590    15.8380     0.0670 ca         1 TWZ      -0.151800
     24 C12         17.6250    15.4200     0.5700 ca         1 TWZ      -0.109300
     25 C13         16.6700    15.3610    -0.6170 c5         1 TWZ       0.036400
     26 C14         17.2260    16.5520    -1.4340 c5         1 TWZ      -0.088900
     27 C15         18.6760    16.0130    -1.4310 c5         1 TWZ       0.045900
     28 C16         18.4130    14.6190    -1.9850 ca         1 TWZ      -0.044300
     29 C17         19.1550    13.7930    -2.8160 ca         1 TWZ      -0.028000
     30 C18         18.5650    12.5940    -3.1880 ca         1 TWZ      -0.124300
     31 C19         17.3050    12.2180    -2.7190 ca         1 TWZ      -0.129300
     32 C20         16.5870    13.0170    -1.8430 ca         1 TWZ      -0.067500
     33 C21         17.1640    14.2290    -1.4970 ca         1 TWZ      -0.070300
     34 C22         16.9830    10.8750    -3.3530 c5         1 TWZ       0.029400
     35 C23         17.6670    11.0890    -4.7280 c5         1 TWZ      -0.084900
     36 C24         19.0340    11.4750    -4.1070 c5         1 TWZ       0.032900
     37 C25         19.2350    10.2570    -3.2210 ca         1 TWZ      -0.062300
     38 C26         20.3570     9.5460    -2.8590 ca         1 TWZ      -0.078000
     39 C27         20.1960     8.4350    -2.0230 ca         1 TWZ      -0.119000
     40 C28         18.9400     8.0680    -1.5640 ca         1 TWZ      -0.126000
     41 C29         17.8050     8.7990    -1.9270 ca         1 TWZ      -0.098500
     42 C30         17.9670     9.8850    -2.7580 ca         1 TWZ      -0.071300
     43 C31         20.7600    15.7460     3.3890 c5         1 TWZ       0.045900
     44 C32         19.7830    16.1870     4.5060 c5         1 TWZ      -0.088900
     45 C33         18.7710    15.0530     4.2120 c5         1 TWZ       0.036400
     46 C34         19.7140    13.8640     4.3080 ca         1 TWZ      -0.070300
     47 C35         19.5250    12.5670     4.7590 ca         1 TWZ      -0.067500
     48 C36         20.6240    11.7240     4.7000 ca         1 TWZ      -0.129300
     49 C37         21.8530    12.1520     4.1950 ca         1 TWZ      -0.124300
     50 C38         22.0340    13.4410     3.7180 ca         1 TWZ      -0.028000
     51 C39         20.9430    14.2930     3.7990 ca         1 TWZ      -0.044300
     52 C40         22.7910    10.9570     4.2690 c5         1 TWZ       0.032900
     53 C41         22.2660    10.3150     5.5770 c5         1 TWZ      -0.084900
     54 C42         20.7960    10.2640     5.0890 c5         1 TWZ       0.029400
     55 C43         21.0090     9.5200     3.7810 ca         1 TWZ      -0.071300
     56 C44         20.2370     8.6100     3.0950 ca         1 TWZ      -0.098500
     57 C45         20.7210     8.1140     1.8790 ca         1 TWZ      -0.126000
     58 C46         21.9420     8.5370     1.3780 ca         1 TWZ      -0.119000
     59 C47         22.7190     9.4680     2.0750 ca         1 TWZ      -0.078000
     60 C48         22.2420     9.9480     3.2750 ca         1 TWZ      -0.062300
     61 N2          16.5540    12.7730     6.6630 nd         1 TWZ      -0.420000
     62 N3          17.2120    13.4470     7.5480 nc         1 TWZ      -0.248800
     63 H2          18.2590    15.3740     8.7630 h1         1 TWZ       0.052200
     64 H3          17.3180    16.6250     7.9720 h1         1 TWZ       0.052200
     65 H4          15.2990    15.7700     6.4440 h4         1 TWZ       0.173000
     66 H5          14.1640    12.2490     5.3680 hc         1 TWZ       0.046700
     67 H6          15.3320    12.6920     4.1500 hc         1 TWZ       0.046700
     68 H7          13.1530    14.4880     5.3120 h1         1 TWZ       0.011700
     69 H8          13.0940    13.6740     3.7530 h1         1 TWZ       0.011700
     70 H12         15.6070    15.3510    -0.3950 hc         1 TWZ       0.083700
     71 H13         17.1220    17.5090    -0.9200 hc         1 TWZ       0.030200
     72 H14         16.7900    16.6250    -2.4330 hc         1 TWZ       0.030200
     73 H15         19.4470    16.5840    -1.9390 hc         1 TWZ       0.098200
     74 H16         20.1360    14.0870    -3.1700 ha         1 TWZ       0.147500
     75 H17         15.6120    12.7260    -1.4690 ha         1 TWZ       0.123000
     76 H18         15.9360    10.5780    -3.3430 hc         1 TWZ       0.058700
     77 H19         17.2170    11.8950    -5.3100 hc         1 TWZ       0.027450
     78 H20         17.7100    10.1810    -5.3330 hc         1 TWZ       0.027450
     79 H21         19.8520    11.7170    -4.7820 hc         1 TWZ       0.061200
     80 H22         21.3410     9.8250    -3.2160 ha         1 TWZ       0.112000
     81 H23         21.0620     7.8520    -1.7350 ha         1 TWZ       0.087000
     82 H24         18.8360     7.2030    -0.9210 ha         1 TWZ       0.084000
     83 H25         16.8250     8.5060    -1.5700 ha         1 TWZ       0.099000
     84 H26         21.6730    16.3210     3.2480 hc         1 TWZ       0.098200
     85 H27         20.2150    16.1250     5.5080 hc         1 TWZ       0.030200
     86 H28         19.3690    17.1850     4.3480 hc         1 TWZ       0.030200
     87 H29         17.8700    15.0040     4.8210 hc         1 TWZ       0.083700
     88 H30         18.5720    12.2340     5.1530 ha         1 TWZ       0.123000
     89 H31         22.9860    13.7750     3.3200 ha         1 TWZ       0.147500
     90 H32         23.8560    11.1730     4.1960 hc         1 TWZ       0.061200
     91 H33         22.6890     9.3280     5.7740 hc         1 TWZ       0.027450
     92 H34         22.4040    10.9530     6.4520 hc         1 TWZ       0.027450
     93 H35         20.0450     9.8530     5.7610 hc         1 TWZ       0.058700
     94 H36         19.2810     8.2780     3.4820 ha         1 TWZ       0.099000
     95 H37         20.1350     7.3930     1.3230 ha         1 TWZ       0.084000
     96 H38         22.3000     8.1400     0.4370 ha         1 TWZ       0.087000
     97 H39         23.6720     9.7940     1.6760 ha         1 TWZ       0.112000
     98 OXT         15.3380    15.0930     9.8010 o          1 TWZ      -0.731500
@<TRIPOS>BOND
     1     1     2 1   
     2     2     3 1   
     3     2    98 1   
     4     3     4 1   
     5     3    63 1   
     6     3    64 1   
     7     4     5 1   
     8     4    62 1   
     9     5     6 2   
    10     5    65 1   
    11     6     7 1   
    12     6    61 1   
    13     7     8 1   
    14     7    66 1   
    15     7    67 1   
    16     8     9 1   
    17     8    68 1   
    18     8    69 1   
    19     9    10 1   
    20    10    11 1   
    21    10    12 1   
    22    10    13 1   
    23    13    14 1   
    24    14    15 ar  
    25    14    24 ar  
    26    15    16 ar  
    27    15    45 1   
    28    16    17 ar  
    29    16    43 1   
    30    17    18 1   
    31    17    23 ar  
    32    18    19 1   
    33    19    20 1   
    34    19    21 1   
    35    19    22 1   
    36    23    24 ar  
    37    23    27 1   
    38    24    25 1   
    39    25    26 1   
    40    25    33 1   
    41    25    70 1   
    42    26    27 1   
    43    26    71 1   
    44    26    72 1   
    45    27    28 1   
    46    27    73 1   
    47    28    29 ar  
    48    28    33 ar  
    49    29    30 ar  
    50    29    74 1   
    51    30    31 ar  
    52    30    36 1   
    53    31    32 ar  
    54    31    34 1   
    55    32    33 ar  
    56    32    75 1   
    57    34    35 1   
    58    34    42 1   
    59    34    76 1   
    60    35    36 1   
    61    35    77 1   
    62    35    78 1   
    63    36    37 1   
    64    36    79 1   
    65    37    38 ar  
    66    37    42 ar  
    67    38    39 ar  
    68    38    80 1   
    69    39    40 ar  
    70    39    81 1   
    71    40    41 ar  
    72    40    82 1   
    73    41    42 ar  
    74    41    83 1   
    75    43    44 1   
    76    43    51 1   
    77    43    84 1   
    78    44    45 1   
    79    44    85 1   
    80    44    86 1   
    81    45    46 1   
    82    45    87 1   
    83    46    47 ar  
    84    46    51 ar  
    85    47    48 ar  
    86    47    88 1   
    87    48    49 ar  
    88    48    54 1   
    89    49    50 ar  
    90    49    52 1   
    91    50    51 ar  
    92    50    89 1   
    93    52    53 1   
    94    52    60 1   
    95    52    90 1   
    96    53    54 1   
    97    53    91 1   
    98    53    92 1   
    99    54    55 1   
   100    54    93 1   
   101    55    56 ar  
   102    55    60 ar  
   103    56    57 ar  
   104    56    94 1   
   105    57    58 ar  
   106    57    95 1   
   107    58    59 ar  
   108    58    96 1   
   109    59    60 ar  
   110    59    97 1   
   111    61    62 2   
@<TRIPOS>SUBSTRUCTURE
     1 TWZ         1 TEMP              0 ****  ****    0 ROOT
