@<TRIPOS>MOLECULE
TWZ
   98   111     1     0     0
SMALL
No Charge or Current Charge


@<TRIPOS>ATOM
      1 O1          17.1000    13.7690    10.5320 o          1 TWZ      -0.731500
      2 C1          17.1280    14.5280     9.5740 c          1 TWZ       0.720000
      3 C2          17.7830    14.0420     8.2820 c3         1 TWZ      -0.081400
      4 N1          16.7940    13.5360     7.3290 na         1 TWZ       0.179800
      5 C3          16.0000    14.2690     6.4870 cc         1 TWZ      -0.172000
      6 C4          15.3240    13.3170     5.7770 cd         1 TWZ       0.203300
      7 C5          14.2880    13.4940     4.6960 c3         1 TWZ      -0.115700
      8 C6          13.7020    14.9220     4.6200 c3         1 TWZ       0.233600
      9 O2          14.6140    15.8400     3.9940 os         1 TWZ      -0.598400
     10 P1          14.8630    15.8340     2.3960 p5         1 TWZ       1.414800
     11 O3          13.7040    15.2380     1.6670 o          1 TWZ      -0.833500
     12 O4          15.1470    17.2230     1.9240 o          1 TWZ      -0.833500
     13 O5          16.1680    14.8860     2.3310 os         1 TWZ      -0.502500
     14 C7          17.3630    15.2960     1.8000 ca         1 TWZ       0.201100
     15 C8          18.4900    15.4830     2.6180 ca         1 TWZ      -0.109300
     16 C9          19.7210    15.8900     2.0950 ca         1 TWZ      -0.151800
     17 C10         19.9130    16.0930     0.7150 ca         1 TWZ       0.323100
     18 O6          21.1250    16.5390     0.2590 os         1 TWZ      -0.466500
     19 P2          22.1020    15.7390    -0.7390 p5         1 TWZ       1.266900
     20 O7          23.5100    15.9730    -0.3100 o          1 TWZ      -0.908833
     21 O8          21.9450    16.2590    -2.1260 o          1 TWZ      -0.908833
     22 O9          21.8160    14.2790    -0.7080 o          1 TWZ      -0.908833
     23 C11         18.7840    15.8980    -0.1140 ca         1 TWZ      -0.151800
     24 C12         17.5420    15.5110     0.4160 ca         1 TWZ      -0.109300
     25 C13         16.5600    15.3370    -0.7330 c5         1 TWZ       0.036400
     26 C14         17.1480    16.5140    -1.6030 c5         1 TWZ      -0.088900
     27 C15         18.6390    15.9990    -1.6250 c5         1 TWZ       0.045900
     28 C16         18.3020    14.6170    -2.1600 ca         1 TWZ      -0.044300
     29 C17         19.0570    13.7620    -2.9840 ca         1 TWZ      -0.028000
     30 C18         18.4940    12.5030    -3.2650 ca         1 TWZ      -0.124300
     31 C19         17.2560    12.1170    -2.7410 ca         1 TWZ      -0.129300
     32 C20         16.5110    12.9640    -1.9020 ca         1 TWZ      -0.067500
     33 C21         17.0690    14.2270    -1.6330 ca         1 TWZ      -0.070300
     34 C22         16.9690    10.6910    -3.1830 c5         1 TWZ       0.029400
     35 C23         17.6590    10.8410    -4.5970 c5         1 TWZ      -0.084900
     36 C24         19.0600    11.3410    -4.0650 c5         1 TWZ       0.032900
     37 C25         19.2740    10.1670    -3.1220 ca         1 TWZ      -0.062300
     38 C26         20.4570     9.5200    -2.7410 ca         1 TWZ      -0.078000
     39 C27         20.3690     8.4580    -1.8160 ca         1 TWZ      -0.119000
     40 C28         19.1150     8.0690    -1.2880 ca         1 TWZ      -0.126000
     41 C29         17.9360     8.7370    -1.6790 ca         1 TWZ      -0.098500
     42 C30         18.0430     9.7850    -2.6040 ca         1 TWZ      -0.071300
     43 C31         20.7270    15.9620     3.2320 c5         1 TWZ       0.045900
     44 C32         19.6860    16.4440     4.3180 c5         1 TWZ      -0.088900
     45 C33         18.6490    15.2710     4.1100 c5         1 TWZ       0.036400
     46 C34         19.6550    14.1520     4.3180 ca         1 TWZ      -0.070300
     47 C35         19.4660    12.8620     4.8410 ca         1 TWZ      -0.067500
     48 C36         20.5880    12.0160     4.8470 ca         1 TWZ      -0.129300
     49 C37         21.8220    12.4280     4.3380 ca         1 TWZ      -0.124300
     50 C38         22.0060    13.7100     3.7900 ca         1 TWZ      -0.028000
     51 C39         20.8870    14.5630     3.8030 ca         1 TWZ      -0.044300
     52 C40         22.7920    11.2610     4.4300 c5         1 TWZ       0.032900
     53 C41         22.2030    10.6940     5.7820 c5         1 TWZ      -0.084900
     54 C42         20.7070    10.5680     5.2910 c5         1 TWZ       0.029400
     55 C43         21.0350     9.7200     4.0730 ca         1 TWZ      -0.071300
     56 C44         20.2950     8.7010     3.4570 ca         1 TWZ      -0.098500
     57 C45         20.8320     8.0900     2.3050 ca         1 TWZ      -0.126000
     58 C46         22.0820     8.5050     1.7890 ca         1 TWZ      -0.119000
     59 C47         22.8090     9.5370     2.4190 ca         1 TWZ      -0.078000
     60 C48         22.2630    10.1280     3.5670 ca         1 TWZ      -0.062300
     61 N2          15.6990    12.0660     6.2240 nd         1 TWZ      -0.420000
     62 N3          16.5940    12.1960     7.1660 nc         1 TWZ      -0.248800
     63 H2          18.5040    13.2520     8.5210 h1         1 TWZ       0.052200
     64 H3          18.3250    14.8780     7.8240 h1         1 TWZ       0.052200
     65 H4          15.9860    15.3490     6.4560 h4         1 TWZ       0.173000
     66 H5          13.4560    12.8100     4.8960 hc         1 TWZ       0.046700
     67 H6          14.6930    13.1900     3.7250 hc         1 TWZ       0.046700
     68 H7          13.4560    15.2660     5.6340 h1         1 TWZ       0.011700
     69 H8          12.7570    14.8870     4.0610 h1         1 TWZ       0.011700
     70 H12         15.4850    15.3800    -0.5270 hc         1 TWZ       0.083700
     71 H13         17.0370    17.4980    -1.1300 hc         1 TWZ       0.030200
     72 H14         16.6980    16.5780    -2.6020 hc         1 TWZ       0.030200
     73 H15         19.3460    16.6200    -2.1850 hc         1 TWZ       0.098200
     74 H16         20.0330    14.0530    -3.3640 ha         1 TWZ       0.147500
     75 H17         15.5640    12.6530    -1.4690 ha         1 TWZ       0.123000
     76 H18         15.9310    10.3410    -3.1800 hc         1 TWZ       0.058700
     77 H19         17.1580    11.5680    -5.2480 hc         1 TWZ       0.027450
     78 H20         17.7200     9.8950    -5.1500 hc         1 TWZ       0.027450
     79 H21         19.8250    11.5500    -4.8220 hc         1 TWZ       0.061200
     80 H22         21.4180     9.8320    -3.1440 ha         1 TWZ       0.112000
     81 H23         21.2710     7.9390    -1.5030 ha         1 TWZ       0.087000
     82 H24         19.0610     7.2520    -0.5730 ha         1 TWZ       0.084000
     83 H25         16.9690     8.4500    -1.2710 ha         1 TWZ       0.099000
     84 H26         21.6230    16.5800     3.1020 hc         1 TWZ       0.098200
     85 H27         20.1030    16.4760     5.3320 hc         1 TWZ       0.030200
     86 H28         19.2650    17.4350     4.1040 hc         1 TWZ       0.030200
     87 H29         17.7530    15.2970     4.7350 hc         1 TWZ       0.083700
     88 H30         18.4970    12.5260     5.1970 ha         1 TWZ       0.123000
     89 H31         22.9550    14.0200     3.3590 ha         1 TWZ       0.147500
     90 H32         23.8680    11.4720     4.4150 hc         1 TWZ       0.061200
     91 H33         22.6440     9.7330     6.0760 hc         1 TWZ       0.027450
     92 H34         22.3240    11.3820     6.6290 hc         1 TWZ       0.027450
     93 H35         19.9830    10.1820     6.0180 hc         1 TWZ       0.058700
     94 H36         19.3310     8.3950     3.8550 ha         1 TWZ       0.099000
     95 H37         20.2790     7.2970     1.8080 ha         1 TWZ       0.084000
     96 H38         22.4830     8.0290     0.8980 ha         1 TWZ       0.087000
     97 H39         23.7670     9.8680     2.0240 ha         1 TWZ       0.112000
     98 OXT         16.6750    15.6630     9.6010 o          1 TWZ      -0.731500
@<TRIPOS>BOND
     1     1     2 1   
     2     2     3 1   
     3     2    98 1   
     4     3     4 1   
     5     3    63 1   
     6     3    64 1   
     7     4     5 1   
     8     4    62 1   
     9     5     6 2   
    10     5    65 1   
    11     6     7 1   
    12     6    61 1   
    13     7     8 1   
    14     7    66 1   
    15     7    67 1   
    16     8     9 1   
    17     8    68 1   
    18     8    69 1   
    19     9    10 1   
    20    10    11 1   
    21    10    12 1   
    22    10    13 1   
    23    13    14 1   
    24    14    15 ar  
    25    14    24 ar  
    26    15    16 ar  
    27    15    45 1   
    28    16    17 ar  
    29    16    43 1   
    30    17    18 1   
    31    17    23 ar  
    32    18    19 1   
    33    19    20 1   
    34    19    21 1   
    35    19    22 1   
    36    23    24 ar  
    37    23    27 1   
    38    24    25 1   
    39    25    26 1   
    40    25    33 1   
    41    25    70 1   
    42    26    27 1   
    43    26    71 1   
    44    26    72 1   
    45    27    28 1   
    46    27    73 1   
    47    28    29 ar  
    48    28    33 ar  
    49    29    30 ar  
    50    29    74 1   
    51    30    31 ar  
    52    30    36 1   
    53    31    32 ar  
    54    31    34 1   
    55    32    33 ar  
    56    32    75 1   
    57    34    35 1   
    58    34    42 1   
    59    34    76 1   
    60    35    36 1   
    61    35    77 1   
    62    35    78 1   
    63    36    37 1   
    64    36    79 1   
    65    37    38 ar  
    66    37    42 ar  
    67    38    39 ar  
    68    38    80 1   
    69    39    40 ar  
    70    39    81 1   
    71    40    41 ar  
    72    40    82 1   
    73    41    42 ar  
    74    41    83 1   
    75    43    44 1   
    76    43    51 1   
    77    43    84 1   
    78    44    45 1   
    79    44    85 1   
    80    44    86 1   
    81    45    46 1   
    82    45    87 1   
    83    46    47 ar  
    84    46    51 ar  
    85    47    48 ar  
    86    47    88 1   
    87    48    49 ar  
    88    48    54 1   
    89    49    50 ar  
    90    49    52 1   
    91    50    51 ar  
    92    50    89 1   
    93    52    53 1   
    94    52    60 1   
    95    52    90 1   
    96    53    54 1   
    97    53    91 1   
    98    53    92 1   
    99    54    55 1   
   100    54    93 1   
   101    55    56 ar  
   102    55    60 ar  
   103    56    57 ar  
   104    56    94 1   
   105    57    58 ar  
   106    57    95 1   
   107    58    59 ar  
   108    58    96 1   
   109    59    60 ar  
   110    59    97 1   
   111    61    62 2   
@<TRIPOS>SUBSTRUCTURE
     1 TWZ         1 TEMP              0 ****  ****    0 ROOT
