@<TRIPOS>MOLECULE
TX0
   11    11     1     0     0
SMALL
abcg2


@<TRIPOS>ATOM
      1 C4           1.0820    -4.4650   -51.0080 cc         1 TX0      -0.198000
      2 C            3.6080    -4.5470   -51.3460 c          1 TX0       0.722600
      3 O            4.5130    -4.3550   -52.1990 o          1 TX0      -0.723500
      4 C1           2.1880    -4.2560   -51.7900 cd         1 TX0      -0.147600
      5 C2           1.8320    -3.7370   -53.0750 cd         1 TX0      -0.082000
      6 C3           0.4890    -3.5670   -53.2340 cc         1 TX0      -0.275000
      7 O1           3.7700    -4.9570   -50.1680 o          1 TX0      -0.723500
      8 S           -0.3720    -4.0400   -51.8170 ss         1 TX0       0.020000
      9 H1           1.0570    -4.8480   -50.0010 h4         1 TX0       0.150000
     10 H2           2.5610    -3.5040   -53.8370 ha         1 TX0       0.138000
     11 H3          -0.0450    -3.1920   -54.0930 h4         1 TX0       0.120000
@<TRIPOS>BOND
     1     1     4 2   
     2     1     8 1   
     3     1     9 1   
     4     2     3 1   
     5     2     4 1   
     6     2     7 1   
     7     4     5 1   
     8     5     6 2   
     9     5    10 1   
    10     6     8 1   
    11     6    11 1   
@<TRIPOS>SUBSTRUCTURE
     1 TX0         1 TEMP              0 ****  ****    0 ROOT
