@<TRIPOS>MOLECULE
TX0
   11    11     1     0     0
SMALL
No Charge or Current Charge


@<TRIPOS>ATOM
      1 C4           1.1000    -4.4660   -50.9910 cc         1 TX0      -0.198000
      2 C            3.5990    -4.5460   -51.3490 c          1 TX0       0.722600
      3 O            4.5170    -4.3320   -52.1280 o          1 TX0      -0.723500
      4 C1           2.1990    -4.2560   -51.7990 cd         1 TX0      -0.147600
      5 C2           1.8320    -3.7420   -53.0800 cd         1 TX0      -0.082000
      6 C3           0.4840    -3.5620   -53.2490 cc         1 TX0      -0.275000
      7 O1           3.7800    -4.9860   -50.2220 o          1 TX0      -0.723500
      8 S           -0.3980    -4.0300   -51.8050 ss         1 TX0       0.020000
      9 H1           1.0640    -4.8440   -49.9770 h4         1 TX0       0.150000
     10 H2           2.5590    -3.5130   -53.8550 ha         1 TX0       0.138000
     11 H3          -0.0530    -3.1910   -54.1130 h4         1 TX0       0.120000
@<TRIPOS>BOND
     1     1     4 2   
     2     1     8 1   
     3     1     9 1   
     4     2     3 1   
     5     2     4 1   
     6     2     7 1   
     7     4     5 1   
     8     5     6 2   
     9     5    10 1   
    10     6     8 1   
    11     6    11 1   
@<TRIPOS>SUBSTRUCTURE
     1 TX0         1 TEMP              0 ****  ****    0 ROOT
