@<TRIPOS>MOLECULE
TX1
   44    46     1     0     0
SMALL
bcc


@<TRIPOS>ATOM
      1 C1           1.1260     0.7010     0.1050 ca         1 TX1       0.154100
      2 C2           2.3180     0.9320     0.7760 ca         1 TX1      -0.036900
      3 C3           2.9480     2.1660     0.7070 ca         1 TX1      -0.061000
      4 C4           2.3560     3.1610    -0.0520 ca         1 TX1      -0.025900
      5 C5           1.1630     2.9440    -0.7240 ca         1 TX1      -0.076000
      6 C6           0.5380     1.7060    -0.6580 ca         1 TX1      -0.109300
      7 C7          -0.7460     1.4760    -1.4170 c3         1 TX1       0.145300
      8 N8          -1.8150     0.9880    -0.5800 ns         1 TX1      -0.554900
      9 C9          -2.3300    -0.2440    -0.6990 c          1 TX1       0.697700
     10 C10         -3.2940    -0.6290     0.3860 ca         1 TX1      -0.091600
     11 C11         -2.8350    -0.6960     1.6940 ca         1 TX1      -0.113000
     12 C12         -3.6410    -1.2000     2.7050 ca         1 TX1      -0.098000
     13 C13         -4.9190    -1.6550     2.4190 ca         1 TX1      -0.121000
     14 C14         -5.3970    -1.6020     1.1190 ca         1 TX1      -0.076000
     15 C15         -4.5820    -1.0860     0.1260 ca         1 TX1      -0.132200
     16 N16         -5.1300    -0.9710    -1.2160 no         1 TX1       0.315200
     17 O17         -2.0100    -1.0500    -1.5550 o          1 TX1      -0.574100
     18 O18         -5.9420    -1.7920    -1.5680 o          1 TX1      -0.197000
     19 O19         -4.7560    -0.0440    -1.8950 o          1 TX1      -0.197000
     20 O20          0.4980    -0.5070     0.2450 os         1 TX1      -0.365200
     21 C21          0.8130    -1.5010    -0.6190 c          1 TX1       0.675700
     22 O22          1.5540    -1.3350    -1.5430 o          1 TX1      -0.473000
     23 BR23         3.0850    -0.4430     1.8000 br         1 TX1      -0.064100
     24 BR24         3.1860     4.8480    -0.1590 br         1 TX1      -0.075100
     25 C25          0.1470    -2.7630    -0.2280 ca         1 TX1      -0.122600
     26 C26         -0.1350    -3.0070     1.1170 ca         1 TX1      -0.077000
     27 C27         -0.7260    -4.1910     1.5200 ca         1 TX1      -0.150000
     28 C28         -1.0560    -5.1500     0.5750 ca         1 TX1      -0.089000
     29 C29         -0.7930    -4.9240    -0.7670 ca         1 TX1      -0.137000
     30 C30         -0.1900    -3.7420    -1.1650 ca         1 TX1       0.094400
     31 CL31         0.0660    -3.5160    -2.8560 cl         1 TX1      -0.061400
     32 H3           3.8760     2.3390     1.2330 ha         1 TX1       0.167000
     33 H5           0.7070     3.7320    -1.3100 ha         1 TX1       0.155000
     34 H7          -1.0500     2.4110    -1.8890 h1         1 TX1       0.079200
     35 H7A         -0.5860     0.7560    -2.2190 h1         1 TX1       0.079200
     36 HN8         -2.1750     1.6050     0.1320 hn         1 TX1       0.322500
     37 H11         -1.8310    -0.3680     1.9270 ha         1 TX1       0.156000
     38 H12         -3.2650    -1.2420     3.7180 ha         1 TX1       0.145000
     39 H13         -5.5510    -2.0440     3.2050 ha         1 TX1       0.148000
     40 H14         -6.3990    -1.9370     0.8920 ha         1 TX1       0.169000
     41 H26          0.1240    -2.2690     1.8630 ha         1 TX1       0.145000
     42 H27         -0.9270    -4.3630     2.5680 ha         1 TX1       0.137000
     43 H28         -1.5230    -6.0780     0.8760 ha         1 TX1       0.138000
     44 H29         -1.0610    -5.6660    -1.5070 ha         1 TX1       0.154000
@<TRIPOS>BOND
     1     1     2 ar  
     2     1     6 ar  
     3     1    20 1   
     4     2     3 ar  
     5     2    23 1   
     6     3     4 ar  
     7     3    32 1   
     8     4     5 ar  
     9     4    24 1   
    10     5     6 ar  
    11     5    33 1   
    12     6     7 1   
    13     7     8 1   
    14     7    34 1   
    15     7    35 1   
    16     8     9 1   
    17     8    36 1   
    18     9    10 1   
    19     9    17 2   
    20    10    11 ar  
    21    10    15 ar  
    22    11    12 ar  
    23    11    37 1   
    24    12    13 ar  
    25    12    38 1   
    26    13    14 ar  
    27    13    39 1   
    28    14    15 ar  
    29    14    40 1   
    30    15    16 1   
    31    16    18 1   
    32    16    19 1   
    33    20    21 1   
    34    21    22 2   
    35    21    25 1   
    36    25    26 ar  
    37    25    30 ar  
    38    26    27 ar  
    39    26    41 1   
    40    27    28 ar  
    41    27    42 1   
    42    28    29 ar  
    43    28    43 1   
    44    29    30 ar  
    45    29    44 1   
    46    30    31 1   
@<TRIPOS>SUBSTRUCTURE
     1 TX1         1 TEMP              0 ****  ****    0 ROOT
