@<TRIPOS>MOLECULE
TX1
   44    46     1     0     0
SMALL
No Charge or Current Charge


@<TRIPOS>ATOM
      1 C1           1.3000     0.7700     0.1880 ca         1 TX1       0.154100
      2 C2           2.5130     0.9950     0.8700 ca         1 TX1      -0.036900
      3 C3           3.1770     2.2260     0.7390 ca         1 TX1      -0.043000
      4 C4           2.6240     3.2330    -0.0680 ca         1 TX1      -0.025900
      5 C5           1.4110     3.0170    -0.7430 ca         1 TX1      -0.058000
      6 C6           0.7320     1.7860    -0.6200 ca         1 TX1      -0.109300
      7 C7          -0.5780     1.5790    -1.3830 c3         1 TX1       0.145300
      8 N8          -1.6410     1.0320    -0.5330 ns         1 TX1      -0.487900
      9 C9          -2.3880    -0.0850    -0.8420 c          1 TX1       0.630700
     10 C10         -3.1740    -0.7130     0.3040 ca         1 TX1      -0.091600
     11 C11         -2.8380    -0.4030     1.6480 ca         1 TX1      -0.095000
     12 C12         -3.4890    -1.0300     2.7230 ca         1 TX1      -0.080000
     13 C13         -4.4870    -1.9830     2.4840 ca         1 TX1      -0.103000
     14 C14         -4.8420    -2.3060     1.1670 ca         1 TX1      -0.058000
     15 C15         -4.2030    -1.6770     0.0760 ca         1 TX1      -0.132200
     16 N16         -4.6640    -2.0340    -1.2950 no         1 TX1       0.695200
     17 O17         -2.3380    -0.5760    -1.9600 o          1 TX1      -0.574100
     18 O18         -4.7060    -3.2370    -1.5830 o          1 TX1      -0.387000
     19 O19         -5.2460    -1.1520    -1.9410 o          1 TX1      -0.387000
     20 O20          0.6550    -0.4300     0.3540 os         1 TX1      -0.365200
     21 C21          0.7700    -1.4700    -0.5260 c          1 TX1       0.626700
     22 O22          1.6130    -1.5020    -1.4120 o          1 TX1      -0.424000
     23 Br23         3.2750    -0.3680     1.9840 br         1 TX1      -0.064100
     24 Br24         3.5270     4.9090    -0.2480 br         1 TX1      -0.075100
     25 C25         -0.1620    -2.6090    -0.1970 ca         1 TX1      -0.122600
     26 C26         -0.5480    -2.8250     1.1480 ca         1 TX1      -0.059000
     27 C27         -1.4490    -3.8500     1.4800 ca         1 TX1      -0.132000
     28 C28         -1.9780    -4.6740     0.4780 ca         1 TX1      -0.071000
     29 C29         -1.6010    -4.4730    -0.8590 ca         1 TX1      -0.119000
     30 C30         -0.7000    -3.4500    -1.2020 ca         1 TX1       0.186000
     31 Cl31        -0.3250    -3.2430    -2.9140 cl         1 TX1      -0.153000
     32 H3           4.1140     2.3990     1.2620 ha         1 TX1       0.149000
     33 H5           0.9990     3.8090    -1.3650 ha         1 TX1       0.137000
     34 H7          -0.9270     2.5350    -1.7970 h1         1 TX1       0.079200
     35 H7A         -0.3850     0.9070    -2.2290 h1         1 TX1       0.079200
     36 HN8         -1.7420     1.4070     0.4010 hn         1 TX1       0.322500
     37 H11         -2.0420     0.2990     1.8830 ha         1 TX1       0.138000
     38 H12         -3.2080    -0.7840     3.7450 ha         1 TX1       0.127000
     39 H13         -4.9860    -2.4700     3.3180 ha         1 TX1       0.130000
     40 H14         -5.6270    -3.0410     0.9930 ha         1 TX1       0.151000
     41 H26         -0.1540    -2.1970     1.9440 ha         1 TX1       0.127000
     42 H27         -1.7420    -4.0000     2.5170 ha         1 TX1       0.119000
     43 H28         -2.6820    -5.4640     0.7340 ha         1 TX1       0.120000
     44 H29         -2.0180    -5.1060    -1.6380 ha         1 TX1       0.136000
@<TRIPOS>BOND
     1     1     2 ar  
     2     1     6 ar  
     3     1    20 1   
     4     2     3 ar  
     5     2    23 1   
     6     3     4 ar  
     7     3    32 1   
     8     4     5 ar  
     9     4    24 1   
    10     5     6 ar  
    11     5    33 1   
    12     6     7 1   
    13     7     8 1   
    14     7    34 1   
    15     7    35 1   
    16     8     9 1   
    17     8    36 1   
    18     9    10 1   
    19     9    17 2   
    20    10    11 ar  
    21    10    15 ar  
    22    11    12 ar  
    23    11    37 1   
    24    12    13 ar  
    25    12    38 1   
    26    13    14 ar  
    27    13    39 1   
    28    14    15 ar  
    29    14    40 1   
    30    15    16 1   
    31    16    18 1   
    32    16    19 1   
    33    20    21 1   
    34    21    22 2   
    35    21    25 1   
    36    25    26 ar  
    37    25    30 ar  
    38    26    27 ar  
    39    26    41 1   
    40    27    28 ar  
    41    27    42 1   
    42    28    29 ar  
    43    28    43 1   
    44    29    30 ar  
    45    29    44 1   
    46    30    31 1   
@<TRIPOS>SUBSTRUCTURE
     1 TX1         1 TEMP              0 ****  ****    0 ROOT
