@<TRIPOS>MOLECULE
TX3
   45    47     1     0     0
SMALL
abcg2


@<TRIPOS>ATOM
      1 C1           1.4230     0.3120     0.6950 ca         1 TX3       0.157100
      2 C2           2.5980     0.9940     0.4080 ca         1 TX3      -0.035900
      3 C3           3.7960     0.3140     0.2450 ca         1 TX3      -0.042000
      4 C4           3.7900    -1.0650     0.3710 ca         1 TX3      -0.026900
      5 C5           2.6240    -1.7580     0.6590 ca         1 TX3      -0.058000
      6 C6           1.4270    -1.0740     0.8240 ca         1 TX3      -0.107300
      7 C7           0.1840    -1.8370     1.1990 c3         1 TX3       0.151300
      8 N8          -0.9050    -1.6030     0.2810 ns         1 TX3      -0.509900
      9 C9          -2.1930    -1.6150     0.6750 c          1 TX3       0.617700
     10 O10         -2.5350    -1.8070     1.8280 o          1 TX3      -0.574100
     11 C11         -3.1840    -1.3740    -0.4210 ca         1 TX3      -0.142600
     12 C12         -3.0470    -2.0370    -1.6400 ca         1 TX3      -0.083000
     13 C13         -3.9670    -1.8600    -2.6620 ca         1 TX3      -0.116000
     14 C14         -5.0400    -1.0020    -2.4770 ca         1 TX3      -0.085000
     15 C15         -5.1930    -0.3300    -1.2740 ca         1 TX3      -0.116000
     16 C16         -4.2780    -0.5260    -0.2510 ca         1 TX3       0.164000
     17 CL17        -4.5110     0.3610     1.2130 cl         1 TX3      -0.166000
     18 BR18         2.5730     2.8660     0.2730 br         1 TX3      -0.060100
     19 BR19         5.4010    -2.0140     0.1470 br         1 TX3      -0.077100
     20 O20          0.2620     1.0030     0.9000 os         1 TX3      -0.345200
     21 C21         -0.4290     1.3950    -0.2050 c          1 TX3       0.621700
     22 O22         -0.0680     1.0780    -1.3050 o          1 TX3      -0.467000
     23 C23         -1.6030     2.2170     0.1360 ca         1 TX3      -0.142600
     24 C24         -1.7120     2.7560     1.4210 ca         1 TX3      -0.040000
     25 C25         -2.7730     3.5720     1.7640 ca         1 TX3      -0.132000
     26 C26         -3.7480     3.8510     0.8170 ca         1 TX3      -0.068000
     27 C27         -3.6520     3.3090    -0.4540 ca         1 TX3      -0.133000
     28 C28         -2.5910     2.4890    -0.8310 ca         1 TX3      -0.007300
     29 C29         -2.5870     1.9440    -2.2290 c3         1 TX3      -0.053800
     30 H3           4.7070     0.8530     0.0230 ha         1 TX3       0.148000
     31 H5           2.6330    -2.8360     0.7560 ha         1 TX3       0.136000
     32 H7           0.4260    -2.9020     1.2490 h1         1 TX3       0.067200
     33 H7A         -0.1390    -1.5410     2.1980 h1         1 TX3       0.067200
     34 HN8         -0.6850    -1.5070    -0.6980 hn         1 TX3       0.327500
     35 H12         -2.2210    -2.7210    -1.7880 ha         1 TX3       0.118000
     36 H13         -3.8450    -2.3930    -3.5950 ha         1 TX3       0.122000
     37 H14         -5.7610    -0.8480    -3.2670 ha         1 TX3       0.120000
     38 H15         -6.0230     0.3490    -1.1300 ha         1 TX3       0.131000
     39 H24         -0.9550     2.5510     2.1640 ha         1 TX3       0.134000
     40 H25         -2.8370     3.9870     2.7610 ha         1 TX3       0.121000
     41 H26         -4.5870     4.4860     1.0680 ha         1 TX3       0.116000
     42 H27         -4.4260     3.5230    -1.1810 ha         1 TX3       0.115000
     43 H29         -2.4820     0.8600    -2.2520 hc         1 TX3       0.052367
     44 H29A        -3.5260     2.1940    -2.7210 hc         1 TX3       0.052367
     45 H29B        -1.7760     2.3610    -2.8250 hc         1 TX3       0.052367
@<TRIPOS>BOND
     1     1     2 ar  
     2     1     6 ar  
     3     1    20 1   
     4     2     3 ar  
     5     2    18 1   
     6     3     4 ar  
     7     3    30 1   
     8     4     5 ar  
     9     4    19 1   
    10     5     6 ar  
    11     5    31 1   
    12     6     7 1   
    13     7     8 1   
    14     7    32 1   
    15     7    33 1   
    16     8     9 1   
    17     8    34 1   
    18     9    10 2   
    19     9    11 1   
    20    11    12 ar  
    21    11    16 ar  
    22    12    13 ar  
    23    12    35 1   
    24    13    14 ar  
    25    13    36 1   
    26    14    15 ar  
    27    14    37 1   
    28    15    16 ar  
    29    15    38 1   
    30    16    17 1   
    31    20    21 1   
    32    21    22 2   
    33    21    23 1   
    34    23    24 ar  
    35    23    28 ar  
    36    24    25 ar  
    37    24    39 1   
    38    25    26 ar  
    39    25    40 1   
    40    26    27 ar  
    41    26    41 1   
    42    27    28 ar  
    43    27    42 1   
    44    28    29 1   
    45    29    43 1   
    46    29    44 1   
    47    29    45 1   
@<TRIPOS>SUBSTRUCTURE
     1 TX3         1 TEMP              0 ****  ****    0 ROOT
