@<TRIPOS>MOLECULE
TX3
   45    47     1     0     0
SMALL
No Charge or Current Charge


@<TRIPOS>ATOM
      1 C1           1.5730     0.3440     0.5070 ca         1 TX3       0.157100
      2 C2           2.7670     0.8450    -0.0530 ca         1 TX3      -0.035900
      3 C3           3.8970     0.0180    -0.1540 ca         1 TX3      -0.042000
      4 C4           3.8350    -1.3080     0.3040 ca         1 TX3      -0.026900
      5 C5           2.6490    -1.8110     0.8660 ca         1 TX3      -0.058000
      6 C6           1.5080    -0.9900     0.9740 ca         1 TX3      -0.107300
      7 C7           0.2330    -1.5490     1.6000 c3         1 TX3       0.151300
      8 N8          -0.8830    -1.5430     0.6540 ns         1 TX3      -0.509900
      9 C9          -2.2070    -1.4300     1.0140 c          1 TX3       0.617700
     10 O10         -2.5410    -1.5520     2.1830 o          1 TX3      -0.574100
     11 C11         -3.1780    -1.1750    -0.1250 ca         1 TX3      -0.142600
     12 C12         -2.8000    -1.4810    -1.4590 ca         1 TX3      -0.083000
     13 C13         -3.6670    -1.2300    -2.5350 ca         1 TX3      -0.116000
     14 C14         -4.9270    -0.6640    -2.3070 ca         1 TX3      -0.085000
     15 C15         -5.3210    -0.3580    -0.9980 ca         1 TX3      -0.116000
     16 C16         -4.4660    -0.6100     0.0900 ca         1 TX3       0.164000
     17 Cl17        -5.0750    -0.1480     1.6820 cl         1 TX3      -0.166000
     18 Br18         2.8720     2.6540    -0.6850 br         1 TX3      -0.060100
     19 Br19         5.3740    -2.4350     0.1660 br         1 TX3      -0.077100
     20 O20          0.4650     1.1520     0.5860 os         1 TX3      -0.345200
     21 C21         -0.4040     1.3020    -0.4630 c          1 TX3       0.621700
     22 O22         -0.2490     0.7060    -1.5200 o          1 TX3      -0.467000
     23 C23         -1.6920     2.0120    -0.0810 ca         1 TX3      -0.142600
     24 C24         -2.0110     2.1710     1.2910 ca         1 TX3      -0.040000
     25 C25         -3.2020     2.7960     1.6890 ca         1 TX3      -0.132000
     26 C26         -4.1030     3.2680     0.7280 ca         1 TX3      -0.068000
     27 C27         -3.8060     3.1210    -0.6340 ca         1 TX3      -0.133000
     28 C28         -2.6090     2.5040    -1.0540 ca         1 TX3      -0.007300
     29 C29         -2.3490     2.4130    -2.5560 c3         1 TX3      -0.053800
     30 H3           4.8180     0.4030    -0.5860 ha         1 TX3       0.148000
     31 H5           2.6200    -2.8400     1.2190 ha         1 TX3       0.136000
     32 H7           0.3950    -2.5780     1.9460 h1         1 TX3       0.067200
     33 H7A         -0.0290    -0.9380     2.4750 h1         1 TX3       0.067200
     34 HN8         -0.6670    -1.4310    -0.3290 hn         1 TX3       0.327500
     35 H12         -1.8360    -1.9320    -1.6830 ha         1 TX3       0.118000
     36 H13         -3.3580    -1.4740    -3.5490 ha         1 TX3       0.122000
     37 H14         -5.5960    -0.4640    -3.1410 ha         1 TX3       0.120000
     38 H15         -6.2980     0.0850    -0.8210 ha         1 TX3       0.131000
     39 H24         -1.3440     1.8020     2.0680 ha         1 TX3       0.134000
     40 H25         -3.4310     2.9050     2.7470 ha         1 TX3       0.121000
     41 H26         -5.0300     3.7460     1.0360 ha         1 TX3       0.116000
     42 H27         -4.5140     3.4960    -1.3700 ha         1 TX3       0.115000
     43 H29         -2.4230     1.3780    -2.9080 hc         1 TX3       0.052367
     44 H29A        -3.0710     3.0030    -3.1320 hc         1 TX3       0.052367
     45 H29B        -1.3520     2.7920    -2.8110 hc         1 TX3       0.052367
@<TRIPOS>BOND
     1     1     2 ar  
     2     1     6 ar  
     3     1    20 1   
     4     2     3 ar  
     5     2    18 1   
     6     3     4 ar  
     7     3    30 1   
     8     4     5 ar  
     9     4    19 1   
    10     5     6 ar  
    11     5    31 1   
    12     6     7 1   
    13     7     8 1   
    14     7    32 1   
    15     7    33 1   
    16     8     9 1   
    17     8    34 1   
    18     9    10 2   
    19     9    11 1   
    20    11    12 ar  
    21    11    16 ar  
    22    12    13 ar  
    23    12    35 1   
    24    13    14 ar  
    25    13    36 1   
    26    14    15 ar  
    27    14    37 1   
    28    15    16 ar  
    29    15    38 1   
    30    16    17 1   
    31    20    21 1   
    32    21    22 2   
    33    21    23 1   
    34    23    24 ar  
    35    23    28 ar  
    36    24    25 ar  
    37    24    39 1   
    38    25    26 ar  
    39    25    40 1   
    40    26    27 ar  
    41    26    41 1   
    42    27    28 ar  
    43    27    42 1   
    44    28    29 1   
    45    29    43 1   
    46    29    44 1   
    47    29    45 1   
@<TRIPOS>SUBSTRUCTURE
     1 TX3         1 TEMP              0 ****  ****    0 ROOT
