@<TRIPOS>MOLECULE
TX6
   43    45     1     0     0
SMALL
No Charge or Current Charge


@<TRIPOS>ATOM
      1 N16        -26.6430    -9.0500    12.7900 n1         1 TX6      -0.474000
      2 C15        -25.9930    -8.1000    12.5910 cg         1 TX6       0.307700
      3 C2         -25.2310    -6.9210    12.2970 ce         1 TX6      -0.086900
      4 C1         -25.7050    -6.0670    11.1160 c6         1 TX6       0.003800
      5 C10        -25.2920    -4.5670    11.2500 c6         1 TX6      -0.091300
      6 C19        -26.0810    -3.9110    12.4370 c3         1 TX6      -0.082100
      7 C9         -25.6610    -3.7680     9.9730 ca         1 TX6       0.149300
      8 N11        -26.8700    -4.0240     9.4260 nb         1 TX6      -0.213000
      9 C12        -27.2150    -3.3160     8.3340 ca         1 TX6       0.173300
     10 C20        -28.5730    -3.6190     7.7280 c3         1 TX6      -0.132400
     11 N13        -26.4710    -2.3690     7.7320 nb         1 TX6      -0.266000
     12 C14        -25.2650    -2.0960     8.2730 ca         1 TX6       0.349300
     13 O21        -24.4450    -1.1390     7.7030 os         1 TX6      -0.466300
     14 C22        -24.8520    -0.4090     6.5280 c3         1 TX6       0.160900
     15 C8         -24.8120    -2.7770     9.4240 ca         1 TX6      -0.197300
     16 C7         -23.4330    -2.4680    10.0230 c6         1 TX6      -0.008100
     17 C6         -23.1920    -3.0960    11.4120 c6         1 TX6      -0.072400
     18 C5         -23.7390    -4.5500    11.4750 c6         1 TX6      -0.049700
     19 C4         -23.3070    -5.3060    12.7810 c6         1 TX6      -0.052500
     20 C18        -21.7830    -5.6630    12.7520 c3         1 TX6      -0.095100
     21 C3         -24.1520    -6.5690    13.0420 c2         1 TX6       0.125900
     22 O17        -23.7540    -7.2740    14.1230 oh         1 TX6      -0.525100
     23 H2         -26.7990    -6.1420    11.0330 hc         1 TX6       0.069200
     24 H3         -25.3040    -6.4900    10.1840 hc         1 TX6       0.069200
     25 H4         -25.8540    -4.3720    13.4050 hc         1 TX6       0.044700
     26 H5         -25.8710    -2.8400    12.5250 hc         1 TX6       0.044700
     27 H6         -27.1640    -4.0060    12.2900 hc         1 TX6       0.044700
     28 H7         -28.7750    -3.0020     6.8440 hc         1 TX6       0.061033
     29 H8         -28.6380    -4.6690     7.4200 hc         1 TX6       0.061033
     30 H9         -29.3740    -3.4320     8.4520 hc         1 TX6       0.061033
     31 H10        -24.0710     0.3020     6.2290 h1         1 TX6       0.051367
     32 H11        -25.0310    -1.0910     5.6860 h1         1 TX6       0.051367
     33 H12        -25.7730     0.1580     6.7180 h1         1 TX6       0.051367
     34 H13        -22.6640    -2.8340     9.3290 hc         1 TX6       0.058200
     35 H14        -23.2850    -1.3810    10.0910 hc         1 TX6       0.058200
     36 H15        -22.1150    -3.0640    11.6170 hc         1 TX6       0.046700
     37 H16        -23.6580    -2.4750    12.1880 hc         1 TX6       0.046700
     38 H17        -23.2890    -5.0940    10.6310 hc         1 TX6       0.060700
     39 H18        -23.4500    -4.6270    13.6340 hc         1 TX6       0.063700
     40 H19        -21.4420    -6.1060    13.6950 hc         1 TX6       0.043700
     41 H20        -21.5610    -6.3790    11.9510 hc         1 TX6       0.043700
     42 H21        -21.1530    -4.7820    12.5890 hc         1 TX6       0.043700
     43 H23        -22.9980    -6.7990    14.5270 ho         1 TX6       0.468000
@<TRIPOS>BOND
     1     1     2 3   
     2     2     3 1   
     3     3     4 1   
     4     3    21 2   
     5     4     5 1   
     6     4    23 1   
     7     4    24 1   
     8     5     6 1   
     9     5     7 1   
    10     5    18 1   
    11     6    25 1   
    12     6    26 1   
    13     6    27 1   
    14     7     8 ar  
    15     7    15 ar  
    16     8     9 ar  
    17     9    10 1   
    18     9    11 ar  
    19    10    28 1   
    20    10    29 1   
    21    10    30 1   
    22    11    12 ar  
    23    12    13 1   
    24    12    15 ar  
    25    13    14 1   
    26    14    31 1   
    27    14    32 1   
    28    14    33 1   
    29    15    16 1   
    30    16    17 1   
    31    16    34 1   
    32    16    35 1   
    33    17    18 1   
    34    17    36 1   
    35    17    37 1   
    36    18    19 1   
    37    18    38 1   
    38    19    20 1   
    39    19    21 1   
    40    19    39 1   
    41    20    40 1   
    42    20    41 1   
    43    20    42 1   
    44    21    22 1   
    45    22    43 1   
@<TRIPOS>SUBSTRUCTURE
     1 TX6         1 TEMP              0 ****  ****    0 ROOT
