@<TRIPOS>MOLECULE
TX6
   43    45     1     0     0
SMALL
abcg2


@<TRIPOS>ATOM
      1 N16        -26.4860    -9.0220    12.7030 n1         1 TX6      -0.474000
      2 C15        -25.8870    -8.0540    12.4950 cg         1 TX6       0.307700
      3 C2         -25.1890    -6.8570    12.2090 ce         1 TX6      -0.086900
      4 C1         -25.6960    -6.0060    11.0670 c6         1 TX6       0.003800
      5 C10        -25.2840    -4.5370    11.2510 c6         1 TX6      -0.091300
      6 C19        -26.0760    -3.9150    12.4210 c3         1 TX6      -0.082100
      7 C9         -25.6340    -3.7480     9.9970 ca         1 TX6       0.149300
      8 N11        -26.8430    -3.9930     9.4550 nb         1 TX6      -0.213000
      9 C12        -27.1940    -3.3090     8.3750 ca         1 TX6       0.173300
     10 C20        -28.5460    -3.5840     7.7850 c3         1 TX6      -0.132400
     11 N13        -26.4290    -2.3860     7.7720 nb         1 TX6      -0.266000
     12 C14        -25.2440    -2.1480     8.3120 ca         1 TX6       0.349300
     13 O21        -24.4300    -1.2430     7.7530 os         1 TX6      -0.466300
     14 C22        -24.8800    -0.5560     6.5740 c3         1 TX6       0.160900
     15 C8         -24.7720    -2.8030     9.4640 ca         1 TX6      -0.197300
     16 C7         -23.4180    -2.4890    10.0350 c6         1 TX6      -0.008100
     17 C6         -23.2200    -3.0820    11.4270 c6         1 TX6      -0.072400
     18 C5         -23.7550    -4.5110    11.4780 c6         1 TX6      -0.049700
     19 C4         -23.3300    -5.2550    12.7560 c6         1 TX6      -0.052500
     20 C18        -21.8320    -5.6100    12.7060 c3         1 TX6      -0.095100
     21 C3         -24.1480    -6.4950    12.9900 c2         1 TX6       0.125900
     22 O17        -23.8250    -7.2750    14.0430 oh         1 TX6      -0.525100
     23 H2         -26.7810    -6.0830    11.0170 hc         1 TX6       0.069200
     24 H3         -25.3120    -6.3800    10.1130 hc         1 TX6       0.069200
     25 H4         -25.9170    -4.4660    13.3470 hc         1 TX6       0.044700
     26 H5         -25.7940    -2.8760    12.5850 hc         1 TX6       0.044700
     27 H6         -27.1420    -3.9430    12.1890 hc         1 TX6       0.044700
     28 H7         -28.6950    -3.0070     6.8740 hc         1 TX6       0.061033
     29 H8         -28.6500    -4.6470     7.5600 hc         1 TX6       0.061033
     30 H9         -29.3280    -3.3260     8.5020 hc         1 TX6       0.061033
     31 H10        -24.0680     0.1170     6.3110 h1         1 TX6       0.051367
     32 H11        -25.0650    -1.2630     5.7660 h1         1 TX6       0.051367
     33 H12        -25.7890     0.0070     6.7800 h1         1 TX6       0.051367
     34 H13        -22.6520    -2.8790     9.3560 hc         1 TX6       0.058200
     35 H14        -23.2730    -1.4070    10.0560 hc         1 TX6       0.058200
     36 H15        -22.1600    -3.0540    11.6770 hc         1 TX6       0.046700
     37 H16        -23.7330    -2.4700    12.1720 hc         1 TX6       0.046700
     38 H17        -23.3150    -5.0580    10.6360 hc         1 TX6       0.060700
     39 H18        -23.4970    -4.6020    13.6230 hc         1 TX6       0.063700
     40 H19        -21.4760    -6.0600    13.6330 hc         1 TX6       0.043700
     41 H20        -21.6360    -6.3060    11.8890 hc         1 TX6       0.043700
     42 H21        -21.2390    -4.7120    12.5450 hc         1 TX6       0.043700
     43 H23        -23.0950    -6.8910    14.5490 ho         1 TX6       0.468000
@<TRIPOS>BOND
     1     1     2 3   
     2     2     3 1   
     3     3     4 1   
     4     3    21 2   
     5     4     5 1   
     6     4    23 1   
     7     4    24 1   
     8     5     6 1   
     9     5     7 1   
    10     5    18 1   
    11     6    25 1   
    12     6    26 1   
    13     6    27 1   
    14     7     8 ar  
    15     7    15 ar  
    16     8     9 ar  
    17     9    10 1   
    18     9    11 ar  
    19    10    28 1   
    20    10    29 1   
    21    10    30 1   
    22    11    12 ar  
    23    12    13 1   
    24    12    15 ar  
    25    13    14 1   
    26    14    31 1   
    27    14    32 1   
    28    14    33 1   
    29    15    16 1   
    30    16    17 1   
    31    16    34 1   
    32    16    35 1   
    33    17    18 1   
    34    17    36 1   
    35    17    37 1   
    36    18    19 1   
    37    18    38 1   
    38    19    20 1   
    39    19    21 1   
    40    19    39 1   
    41    20    40 1   
    42    20    41 1   
    43    20    42 1   
    44    21    22 1   
    45    22    43 1   
@<TRIPOS>SUBSTRUCTURE
     1 TX6         1 TEMP              0 ****  ****    0 ROOT
