@<TRIPOS>MOLECULE
TX7
   44    46     1     0     0
SMALL
No Charge or Current Charge


@<TRIPOS>ATOM
      1 O18          1.9650    -4.8000    -1.9950 o          1 TX7      -0.382500
      2 N16          2.5780    -3.9600    -1.3210 no         1 TX7       0.697200
      3 O19          3.7360    -3.6000    -1.5650 o          1 TX7      -0.382500
      4 C15          2.0440    -3.6690     0.0390 ca         1 TX7      -0.120200
      5 C14          2.8000    -4.1170     1.1440 ca         1 TX7      -0.061000
      6 C13          2.3390    -3.9170     2.4520 ca         1 TX7      -0.097000
      7 C12          1.1170    -3.2690     2.6680 ca         1 TX7      -0.086000
      8 C11          0.3590    -2.8080     1.5800 ca         1 TX7      -0.096000
      9 C10          0.8040    -2.9890     0.2430 ca         1 TX7      -0.096600
     10 C9           0.0050    -2.3980    -0.9160 c          1 TX7       0.627700
     11 O17          0.4690    -2.2450    -2.0360 o          1 TX7      -0.579100
     12 N8          -1.2700    -1.9580    -0.6240 ns         1 TX7      -0.488900
     13 C7          -2.0950    -1.1480    -1.5260 c3         1 TX7       0.145300
     14 C6          -2.8010     0.0050    -0.8090 ca         1 TX7      -0.111300
     15 C5          -4.1860     0.1860    -1.0100 ca         1 TX7      -0.060000
     16 C4          -4.8680     1.2390    -0.3790 ca         1 TX7      -0.025900
     17 Br2         -6.7450     1.4640    -0.6660 br         1 TX7      -0.073100
     18 C3          -4.1800     2.1260     0.4640 ca         1 TX7      -0.043000
     19 C2          -2.8020     1.9590     0.6730 ca         1 TX7      -0.036900
     20 Br          -1.8770     3.1740     1.8340 br         1 TX7      -0.060100
     21 C1          -2.1090     0.9120     0.0350 ca         1 TX7       0.155100
     22 O20         -0.7680     0.7560     0.2890 os         1 TX7      -0.364200
     23 C21          0.2110     1.0260    -0.6290 c          1 TX7       0.625700
     24 O22         -0.0070     1.5560    -1.7100 o          1 TX7      -0.441000
     25 C25          1.5620     0.4890    -0.2240 ca         1 TX7      -0.116600
     26 C30          1.8300     0.1230     1.1160 ca         1 TX7      -0.049500
     27 C26          2.5660     0.2990    -1.1990 ca         1 TX7      -0.049500
     28 C27          3.8020    -0.2700    -0.8470 ca         1 TX7      -0.100500
     29 C28          4.0480    -0.6470     0.4820 ca         1 TX7       0.010100
     30 C29          3.0680    -0.4430     1.4640 ca         1 TX7      -0.100500
     31 Br1          5.7150    -1.4560     0.9540 br         1 TX7      -0.087100
     32 H1           3.7470    -4.6330     0.9870 ha         1 TX7       0.151000
     33 H2           2.9280    -4.2680     3.2980 ha         1 TX7       0.131000
     34 H3           0.7610    -3.1100     3.6840 ha         1 TX7       0.128000
     35 H4          -0.5640    -2.2790     1.8020 ha         1 TX7       0.133000
     36 H5          -1.6120    -2.1250     0.3120 hn         1 TX7       0.322500
     37 H6          -1.4760    -0.7310    -2.3320 h1         1 TX7       0.078700
     38 H7          -2.8370    -1.8080    -1.9960 h1         1 TX7       0.078700
     39 H8          -4.7380    -0.4910    -1.6600 ha         1 TX7       0.136000
     40 H9          -4.7130     2.9370     0.9540 ha         1 TX7       0.150000
     41 H10          1.0790     0.2610     1.8910 ha         1 TX7       0.135000
     42 H11          2.3810     0.5660    -2.2380 ha         1 TX7       0.135000
     43 H12          4.5630    -0.4310    -1.6080 ha         1 TX7       0.134000
     44 H13          3.2590    -0.7370     2.4940 ha         1 TX7       0.134000
@<TRIPOS>BOND
     1     1     2 1   
     2     2     3 1   
     3     2     4 1   
     4     4     5 ar  
     5     4     9 ar  
     6     5     6 ar  
     7     5    32 1   
     8     6     7 ar  
     9     6    33 1   
    10     7     8 ar  
    11     7    34 1   
    12     8     9 ar  
    13     8    35 1   
    14     9    10 1   
    15    10    11 2   
    16    10    12 1   
    17    12    13 1   
    18    12    36 1   
    19    13    14 1   
    20    13    37 1   
    21    13    38 1   
    22    14    15 ar  
    23    14    21 ar  
    24    15    16 ar  
    25    15    39 1   
    26    16    17 1   
    27    16    18 ar  
    28    18    19 ar  
    29    18    40 1   
    30    19    20 1   
    31    19    21 ar  
    32    21    22 1   
    33    22    23 1   
    34    23    24 2   
    35    23    25 1   
    36    25    26 ar  
    37    25    27 ar  
    38    26    30 ar  
    39    26    41 1   
    40    27    28 ar  
    41    27    42 1   
    42    28    29 ar  
    43    28    43 1   
    44    29    30 ar  
    45    29    31 1   
    46    30    44 1   
@<TRIPOS>SUBSTRUCTURE
     1 TX7         1 TEMP              0 ****  ****    0 ROOT
