@<TRIPOS>MOLECULE
TX7
   44    46     1     0     0
SMALL
abcg2


@<TRIPOS>ATOM
      1 O18          1.1420    -4.6570    -1.9110 o          1 TX7      -0.382500
      2 N16          2.0540    -4.3370    -1.1870 no         1 TX7       0.697200
      3 O19          3.2220    -4.3900    -1.4860 o          1 TX7      -0.382500
      4 C15          1.7180    -3.8990     0.1590 ca         1 TX7      -0.120200
      5 C14          2.4900    -4.3790     1.1990 ca         1 TX7      -0.061000
      6 C13          2.1400    -4.0510     2.5020 ca         1 TX7      -0.097000
      7 C12          1.0370    -3.2490     2.7410 ca         1 TX7      -0.086000
      8 C11          0.2880    -2.7580     1.6790 ca         1 TX7      -0.096000
      9 C10          0.6160    -3.0750     0.3680 ca         1 TX7      -0.096600
     10 C9          -0.0610    -2.3620    -0.7620 c          1 TX7       0.627700
     11 O17          0.6010    -1.8540    -1.6510 o          1 TX7      -0.579100
     12 N8          -1.3950    -2.2620    -0.6650 ns         1 TX7      -0.488900
     13 C7          -2.1770    -1.4160    -1.5300 c3         1 TX7       0.145300
     14 C6          -2.7450    -0.2000    -0.8350 ca         1 TX7      -0.111300
     15 C5          -4.1020     0.0730    -0.9600 ca         1 TX7      -0.060000
     16 C4          -4.6500     1.1960    -0.3610 ca         1 TX7      -0.025900
     17 BR2         -6.4900     1.5420    -0.5510 br         1 TX7      -0.073100
     18 C3          -3.8730     2.0650     0.3870 ca         1 TX7      -0.043000
     19 C2          -2.5210     1.7880     0.5160 ca         1 TX7      -0.036900
     20 BR          -1.4350     2.9330     1.5320 br         1 TX7      -0.060100
     21 C1          -1.9580     0.6700    -0.0860 ca         1 TX7       0.155100
     22 O20         -0.6330     0.4000     0.1260 os         1 TX7      -0.364200
     23 C21          0.2860     0.9230    -0.7160 c          1 TX7       0.625700
     24 O22         -0.0160     1.5500    -1.6930 o          1 TX7      -0.441000
     25 C25          1.6610     0.6170    -0.2750 ca         1 TX7      -0.116600
     26 C30          1.9400     0.1150     0.9930 ca         1 TX7      -0.049500
     27 C26          2.7000     0.8170    -1.1790 ca         1 TX7      -0.049500
     28 C27          4.0020     0.4980    -0.8370 ca         1 TX7      -0.100500
     29 C28          4.2580    -0.0210     0.4260 ca         1 TX7       0.010100
     30 C29          3.2390    -0.2070     1.3490 ca         1 TX7      -0.100500
     31 BR1          6.0240    -0.4760     0.8970 br         1 TX7      -0.087100
     32 H1           3.3380    -5.0220     1.0080 ha         1 TX7       0.151000
     33 H2           2.7320    -4.4290     3.3240 ha         1 TX7       0.131000
     34 H3           0.7640    -2.9870     3.7530 ha         1 TX7       0.128000
     35 H4          -0.5410    -2.0910     1.8790 ha         1 TX7       0.133000
     36 H5          -1.8790    -2.7590     0.0670 hn         1 TX7       0.322500
     37 H6          -1.5550    -1.1090    -2.3700 h1         1 TX7       0.078700
     38 H7          -3.0020    -1.9930    -1.9480 h1         1 TX7       0.078700
     39 H8          -4.7210    -0.6030    -1.5350 ha         1 TX7       0.136000
     40 H9          -4.3030     2.9370     0.8600 ha         1 TX7       0.150000
     41 H10          1.1570    -0.0190     1.7250 ha         1 TX7       0.135000
     42 H11          2.4950     1.2070    -2.1670 ha         1 TX7       0.135000
     43 H12          4.7990     0.6470    -1.5520 ha         1 TX7       0.134000
     44 H13          3.4440    -0.5990     2.3350 ha         1 TX7       0.134000
@<TRIPOS>BOND
     1     1     2 1   
     2     2     3 1   
     3     2     4 1   
     4     4     5 ar  
     5     4     9 ar  
     6     5     6 ar  
     7     5    32 1   
     8     6     7 ar  
     9     6    33 1   
    10     7     8 ar  
    11     7    34 1   
    12     8     9 ar  
    13     8    35 1   
    14     9    10 1   
    15    10    11 2   
    16    10    12 1   
    17    12    13 1   
    18    12    36 1   
    19    13    14 1   
    20    13    37 1   
    21    13    38 1   
    22    14    15 ar  
    23    14    21 ar  
    24    15    16 ar  
    25    15    39 1   
    26    16    17 1   
    27    16    18 ar  
    28    18    19 ar  
    29    18    40 1   
    30    19    20 1   
    31    19    21 ar  
    32    21    22 1   
    33    22    23 1   
    34    23    24 2   
    35    23    25 1   
    36    25    26 ar  
    37    25    27 ar  
    38    26    30 ar  
    39    26    41 1   
    40    27    28 ar  
    41    27    42 1   
    42    28    29 ar  
    43    28    43 1   
    44    29    30 ar  
    45    29    31 1   
    46    30    44 1   
@<TRIPOS>SUBSTRUCTURE
     1 TX7         1 TEMP              0 ****  ****    0 ROOT
