@<TRIPOS>MOLECULE
TX9
   79    84     1     0     0
SMALL
No Charge or Current Charge


@<TRIPOS>ATOM
      1 N1          -1.7080   -31.1910    27.6920 n          1 TX9      -0.373800
      2 C4          -1.1050   -26.9640    27.4850 ca         1 TX9      -0.205000
      3 C5          -1.2870   -28.3590    27.4290 ca         1 TX9      -0.024300
      4 C6          -2.5650   -28.8900    27.1320 ca         1 TX9      -0.122300
      5 C7          -0.1020   -29.2850    27.7080 c6         1 TX9      -0.012100
      6 C8          -0.3590   -30.7480    27.3030 cx         1 TX9       0.050400
      7 C10         -2.0140   -32.2780    28.5560 c          1 TX9       0.619700
      8 C13          0.0810   -34.8980    30.3910 ca         1 TX9      -0.117500
      9 C15          0.9450   -32.7030    30.9740 ca         1 TX9      -0.117500
     10 C17          0.8400   -31.6770    27.1890 cx         1 TX9      -0.119400
     11 C20         -3.9100   -32.0100    25.3990 ca         1 TX9      -0.057500
     12 C21         -4.1850   -32.4610    24.0960 ca         1 TX9      -0.177000
     13 C22         -3.6410   -31.7850    22.9840 ca         1 TX9       0.146100
     14 C24         -2.5530   -30.2090    24.4920 ca         1 TX9      -0.057500
     15 C26         -4.7420   -33.4600    19.8290 c5         1 TX9      -0.072700
     16 C28         -6.1840   -34.1340    17.9510 c5         1 TX9       0.156800
     17 C1          -3.6420   -28.0120    26.8920 ca         1 TX9      -0.063000
     18 C11         -0.9410   -32.8950    29.4260 ca         1 TX9      -0.131600
     19 C12         -0.8920   -34.2980    29.5740 ca         1 TX9      -0.076500
     20 C14          1.0050   -34.1010    31.0870 ca         1 TX9      -0.096000
     21 C16         -0.0280   -32.1020    30.1570 ca         1 TX9      -0.076500
     22 C18          0.1770   -31.1670    25.9440 cx         1 TX9      -0.119400
     23 C19         -3.0900   -30.8840    25.6100 ca         1 TX9      -0.137300
     24 C2          -3.4490   -26.6220    26.9480 ca         1 TX9      -0.140000
     25 C23         -2.8270   -30.6620    23.1910 ca         1 TX9      -0.177000
     26 C25         -4.6970   -33.3180    21.3660 c3         1 TX9       0.169600
     27 C27         -5.3750   -32.2640    19.0820 c5         1 TX9       0.164800
     28 C29         -5.6180   -34.6430    19.3130 c5         1 TX9      -0.075400
     29 C3          -2.1830   -26.1000    27.2440 ca         1 TX9       0.138100
     30 C31         -6.0250   -32.5020    15.2480 c3         1 TX9      -0.070400
     31 C32         -7.3010   -33.2840    14.8410 c3         1 TX9      -0.073400
     32 C33         -7.2580   -33.8730    13.4110 c3         1 TX9      -0.075400
     33 C34         -7.2140   -32.8190    12.2850 c3         1 TX9      -0.090100
     34 C9          -2.8030   -30.4100    27.0480 c6         1 TX9       0.214300
     35 N2          -5.4800   -32.8470    17.7290 n3         1 TX9      -0.722600
     36 O1          -2.0030   -24.7510    27.2980 oh         1 TX9      -0.537100
     37 O2          -3.8740   -32.1820    21.6840 os         1 TX9      -0.357100
     38 O3          -3.1610   -32.7030    28.6400 o          1 TX9      -0.607100
     39 H1          -0.1230   -26.5600    27.7180 ha         1 TX9       0.111000
     40 H2           0.7910   -28.9050    27.1940 hc         1 TX9       0.057700
     41 H3           0.1310   -29.2410    28.7780 hc         1 TX9       0.057700
     42 H4           0.1180   -35.9810    30.4860 ha         1 TX9       0.116000
     43 H5           1.6470   -32.0830    31.5280 ha         1 TX9       0.116000
     44 H6           0.7230   -32.7380    27.3930 hc         1 TX9       0.082450
     45 H7           1.8190   -31.2780    27.4430 hc         1 TX9       0.082450
     46 H8          -4.3380   -32.5400    26.2470 ha         1 TX9       0.125500
     47 H9          -4.8200   -33.3340    23.9720 ha         1 TX9       0.122000
     48 H10         -1.9130   -29.3390    24.6250 ha         1 TX9       0.125500
     49 H11         -3.7050   -33.5940    19.4980 hc         1 TX9       0.072700
     50 H12         -7.2700   -33.9830    18.0220 h1         1 TX9       0.037200
     51 H13         -5.9920   -34.8510    17.1420 h1         1 TX9       0.037200
     52 H14         -4.6270   -28.4090    26.6570 ha         1 TX9       0.123000
     53 H15         -1.6040   -34.9260    29.0410 ha         1 TX9       0.121500
     54 H16          1.7570   -34.5660    31.7210 ha         1 TX9       0.114000
     55 H17         -0.0820   -31.0190    30.1100 ha         1 TX9       0.121500
     56 H18          0.7100   -30.4300    25.3480 hc         1 TX9       0.082450
     57 H19         -0.3990   -31.8830    25.3640 hc         1 TX9       0.082450
     58 H20         -4.2830   -25.9500    26.7610 ha         1 TX9       0.132000
     59 H21         -2.4060   -30.1390    22.3370 ha         1 TX9       0.122000
     60 H22         -5.7170   -33.1790    21.7490 h1         1 TX9       0.037700
     61 H23         -4.2780   -34.2350    21.8010 h1         1 TX9       0.037700
     62 H24         -4.7300   -31.3740    19.1070 h1         1 TX9       0.042700
     63 H25         -6.3590   -31.9940    19.4930 h1         1 TX9       0.042700
     64 H26         -6.4380   -34.8790    20.0010 hc         1 TX9       0.048700
     65 H27         -5.0270   -35.5580    19.1940 hc         1 TX9       0.048700
     66 H28         -5.4380   -31.0250    16.6880 h1         1 TX9       0.029200
     67 H29         -7.0630   -31.6460    16.9570 h1         1 TX9       0.029200
     68 H30         -5.1370   -33.1290    15.1050 hc         1 TX9       0.043200
     69 H31         -5.9140   -31.6480    14.5710 hc         1 TX9       0.043200
     70 H32         -8.1730   -32.6250    14.9310 hc         1 TX9       0.038200
     71 H33         -7.4670   -34.1110    15.5390 hc         1 TX9       0.038200
     72 H34         -8.1480   -34.4980    13.2650 hc         1 TX9       0.037200
     73 H35         -6.3910   -34.5390    13.3170 hc         1 TX9       0.037200
     74 H36         -7.2740   -33.3080    11.3050 hc         1 TX9       0.030700
     75 H37         -8.0560   -32.1220    12.3710 hc         1 TX9       0.030700
     76 H38         -6.2810   -32.2450    12.3160 hc         1 TX9       0.030700
     77 H39         -3.7260   -30.5820    27.6230 h1         1 TX9       0.095700
     78 H41         -1.0630   -24.5740    27.5170 ho         1 TX9       0.462000
     79 C30         -6.0380   -31.9450    16.6940 c3         1 TX9       0.172800
@<TRIPOS>BOND
     1     1     6 1   
     2     1     7 1   
     3     1    34 1   
     4     2     3 ar  
     5     2    29 ar  
     6     2    39 1   
     7     3     4 ar  
     8     3     5 1   
     9     4    17 ar  
    10     4    34 1   
    11     5     6 1   
    12     5    40 1   
    13     5    41 1   
    14     6    10 1   
    15     6    22 1   
    16     7    18 1   
    17     7    38 2   
    18     8    19 ar  
    19     8    20 ar  
    20     8    42 1   
    21     9    20 ar  
    22     9    21 ar  
    23     9    43 1   
    24    10    22 1   
    25    10    44 1   
    26    10    45 1   
    27    11    12 ar  
    28    11    23 ar  
    29    11    46 1   
    30    12    13 ar  
    31    12    47 1   
    32    13    25 ar  
    33    13    37 1   
    34    14    23 ar  
    35    14    25 ar  
    36    14    48 1   
    37    15    26 1   
    38    15    27 1   
    39    15    28 1   
    40    15    49 1   
    41    16    28 1   
    42    16    35 1   
    43    16    50 1   
    44    16    51 1   
    45    17    24 ar  
    46    17    52 1   
    47    18    19 ar  
    48    18    21 ar  
    49    19    53 1   
    50    20    54 1   
    51    21    55 1   
    52    22    56 1   
    53    22    57 1   
    54    23    34 1   
    55    24    29 ar  
    56    24    58 1   
    57    25    59 1   
    58    26    37 1   
    59    26    60 1   
    60    26    61 1   
    61    27    35 1   
    62    27    62 1   
    63    27    63 1   
    64    28    64 1   
    65    28    65 1   
    66    29    36 1   
    67    30    31 1   
    68    30    68 1   
    69    30    69 1   
    70    30    79 1   
    71    31    32 1   
    72    31    70 1   
    73    31    71 1   
    74    32    33 1   
    75    32    72 1   
    76    32    73 1   
    77    33    74 1   
    78    33    75 1   
    79    33    76 1   
    80    34    77 1   
    81    35    79 1   
    82    36    78 1   
    83    66    79 1   
    84    67    79 1   
@<TRIPOS>SUBSTRUCTURE
     1 TX9         1 TEMP              0 ****  ****    0 ROOT
