@<TRIPOS>MOLECULE
TX9
   79    84     1     0     0
SMALL
abcg2


@<TRIPOS>ATOM
      1 N1          -1.8630   -31.1890    27.5380 n          1 TX9      -0.373800
      2 C4          -0.9190   -27.1030    27.4750 ca         1 TX9      -0.205000
      3 C5          -1.1980   -28.4680    27.3730 ca         1 TX9      -0.024300
      4 C6          -2.4650   -28.8830    26.9610 ca         1 TX9      -0.122300
      5 C7          -0.1330   -29.4710    27.7430 c6         1 TX9      -0.012100
      6 C8          -0.4810   -30.8620    27.2670 cx         1 TX9       0.050400
      7 C10         -2.3330   -32.0840    28.4410 c          1 TX9       0.619700
      8 C13         -0.5020   -34.7850    30.3330 ca         1 TX9      -0.117500
      9 C15          0.2160   -32.6530    31.1940 ca         1 TX9      -0.117500
     10 C17          0.5830   -31.9130    27.2380 cx         1 TX9      -0.119400
     11 C20         -3.6390   -31.9950    25.0900 ca         1 TX9      -0.057500
     12 C21         -3.7760   -32.4740    23.7910 ca         1 TX9      -0.177000
     13 C22         -3.2570   -31.7340    22.7270 ca         1 TX9       0.146100
     14 C24         -2.4810   -30.0650    24.2860 ca         1 TX9      -0.057500
     15 C26         -4.0450   -33.4410    19.5800 c5         1 TX9      -0.072700
     16 C28         -5.8720   -34.1840    18.1410 c5         1 TX9       0.156800
     17 C1          -3.4300   -27.9180    26.6660 ca         1 TX9      -0.063000
     18 C11         -1.3750   -32.7450    29.3840 ca         1 TX9      -0.131600
     19 C12         -1.3350   -34.1390    29.4290 ca         1 TX9      -0.076500
     20 C14          0.2760   -34.0420    31.2180 ca         1 TX9      -0.096000
     21 C16         -0.6010   -32.0050    30.2740 ca         1 TX9      -0.076500
     22 C18          0.1030   -31.3170    25.9470 cx         1 TX9      -0.119400
     23 C19         -2.9900   -30.7930    25.3610 ca         1 TX9      -0.137300
     24 C2          -3.1580   -26.5650    26.7640 ca         1 TX9      -0.140000
     25 C23         -2.6080   -30.5250    22.9860 ca         1 TX9      -0.177000
     26 C25         -4.0310   -33.3130    21.0860 c3         1 TX9       0.169600
     27 C27         -4.7800   -32.2940    18.8780 c5         1 TX9       0.164800
     28 C29         -4.8010   -34.7100    19.1050 c5         1 TX9      -0.075400
     29 C3          -1.8870   -26.1550    27.1690 ca         1 TX9       0.138100
     30 C31         -6.4090   -32.2480    15.4760 c3         1 TX9      -0.070400
     31 C32         -6.9340   -33.6090    15.0210 c3         1 TX9      -0.073400
     32 C33         -7.2220   -33.6860    13.5170 c3         1 TX9      -0.075400
     33 C34         -8.4170   -32.8470    13.0660 c3         1 TX9      -0.090100
     34 C9          -2.8310   -30.3450    26.8080 c6         1 TX9       0.214300
     35 N2          -5.3340   -32.9040    17.6680 n3         1 TX9      -0.722600
     36 O1          -1.6490   -24.8120    27.2500 oh         1 TX9      -0.537100
     37 O2          -3.3380   -32.1040    21.4210 os         1 TX9      -0.357100
     38 O3          -3.5340   -32.3680    28.5240 o          1 TX9      -0.607100
     39 H1           0.0660   -26.7790    27.7930 ha         1 TX9       0.111000
     40 H2           0.8280   -29.1680    27.3230 hc         1 TX9       0.057700
     41 H3          -0.0080   -29.4730    28.8310 hc         1 TX9       0.057700
     42 H4          -0.4610   -35.8670    30.3500 ha         1 TX9       0.116000
     43 H5           0.8070   -32.0700    31.8900 ha         1 TX9       0.116000
     44 H6           0.3070   -32.9360    27.4420 hc         1 TX9       0.082450
     45 H7           1.5500   -31.6250    27.6290 hc         1 TX9       0.082450
     46 H8          -4.0380   -32.5780    25.9100 ha         1 TX9       0.125500
     47 H9          -4.2860   -33.4110    23.6210 ha         1 TX9       0.122000
     48 H10         -1.9720   -29.1280    24.4650 ha         1 TX9       0.125500
     49 H11         -3.0120   -33.4770    19.2280 hc         1 TX9       0.072700
     50 H12         -6.8230   -34.0220    18.6770 h1         1 TX9       0.037200
     51 H13         -6.0690   -34.8660    17.3180 h1         1 TX9       0.037200
     52 H14         -4.4150   -28.2370    26.3460 ha         1 TX9       0.123000
     53 H15         -1.9480   -34.7120    28.7450 ha         1 TX9       0.121500
     54 H16          0.9210   -34.5450    31.9280 ha         1 TX9       0.114000
     55 H17         -0.6440   -30.9250    30.2590 ha         1 TX9       0.121500
     56 H18          0.7320   -30.6130    25.4180 hc         1 TX9       0.082450
     57 H19         -0.5140   -31.9420    25.3200 hc         1 TX9       0.082450
     58 H20         -3.9110   -25.8230    26.5320 ha         1 TX9       0.132000
     59 H21         -2.2080   -29.9570    22.1550 ha         1 TX9       0.122000
     60 H22         -5.0550   -33.2670    21.4740 h1         1 TX9       0.037700
     61 H23         -3.5240   -34.1660    21.5470 h1         1 TX9       0.037700
     62 H24         -4.1320   -31.4550    18.6250 h1         1 TX9       0.042700
     63 H25         -5.5840   -31.9140    19.5350 h1         1 TX9       0.042700
     64 H26         -5.2510   -35.2540    19.9370 hc         1 TX9       0.048700
     65 H27         -4.1190   -35.3930    18.5990 hc         1 TX9       0.048700
     66 H28         -5.9650   -31.0060    17.1460 h1         1 TX9       0.029200
     67 H29         -7.2880   -32.1260    17.4520 h1         1 TX9       0.029200
     68 H30         -5.4290   -32.0720    15.0200 hc         1 TX9       0.043200
     69 H31         -7.0710   -31.4610    15.1010 hc         1 TX9       0.043200
     70 H32         -7.8490   -33.8530    15.5740 hc         1 TX9       0.038200
     71 H33         -6.2030   -34.3790    15.2750 hc         1 TX9       0.038200
     72 H34         -7.4020   -34.7310    13.2480 hc         1 TX9       0.037200
     73 H35         -6.3270   -33.3760    12.9660 hc         1 TX9       0.037200
     74 H36         -8.6040   -32.9730    11.9970 hc         1 TX9       0.030700
     75 H37         -9.3230   -33.1460    13.6010 hc         1 TX9       0.030700
     76 H38         -8.2600   -31.7820    13.2490 hc         1 TX9       0.030700
     77 H39         -3.7840   -30.5090    27.3050 h1         1 TX9       0.095700
     78 H41         -0.7410   -24.6550    27.5410 ho         1 TX9       0.462000
     79 C30         -6.2920   -32.0360    16.9850 c3         1 TX9       0.172800
@<TRIPOS>BOND
     1     1     6 1   
     2     1     7 1   
     3     1    34 1   
     4     2     3 ar  
     5     2    29 ar  
     6     2    39 1   
     7     3     4 ar  
     8     3     5 1   
     9     4    17 ar  
    10     4    34 1   
    11     5     6 1   
    12     5    40 1   
    13     5    41 1   
    14     6    10 1   
    15     6    22 1   
    16     7    18 1   
    17     7    38 2   
    18     8    19 ar  
    19     8    20 ar  
    20     8    42 1   
    21     9    20 ar  
    22     9    21 ar  
    23     9    43 1   
    24    10    22 1   
    25    10    44 1   
    26    10    45 1   
    27    11    12 ar  
    28    11    23 ar  
    29    11    46 1   
    30    12    13 ar  
    31    12    47 1   
    32    13    25 ar  
    33    13    37 1   
    34    14    23 ar  
    35    14    25 ar  
    36    14    48 1   
    37    15    26 1   
    38    15    27 1   
    39    15    28 1   
    40    15    49 1   
    41    16    28 1   
    42    16    35 1   
    43    16    50 1   
    44    16    51 1   
    45    17    24 ar  
    46    17    52 1   
    47    18    19 ar  
    48    18    21 ar  
    49    19    53 1   
    50    20    54 1   
    51    21    55 1   
    52    22    56 1   
    53    22    57 1   
    54    23    34 1   
    55    24    29 ar  
    56    24    58 1   
    57    25    59 1   
    58    26    37 1   
    59    26    60 1   
    60    26    61 1   
    61    27    35 1   
    62    27    62 1   
    63    27    63 1   
    64    28    64 1   
    65    28    65 1   
    66    29    36 1   
    67    30    31 1   
    68    30    68 1   
    69    30    69 1   
    70    30    79 1   
    71    31    32 1   
    72    31    70 1   
    73    31    71 1   
    74    32    33 1   
    75    32    72 1   
    76    32    73 1   
    77    33    74 1   
    78    33    75 1   
    79    33    76 1   
    80    34    77 1   
    81    35    79 1   
    82    36    78 1   
    83    66    79 1   
    84    67    79 1   
@<TRIPOS>SUBSTRUCTURE
     1 TX9         1 TEMP              0 ****  ****    0 ROOT
