@<TRIPOS>MOLECULE
TXB
   20    20     1     0     0
SMALL
No Charge or Current Charge


@<TRIPOS>ATOM
      1 S4           2.7260    -0.0750    -0.5010 sh         1 TXB      -0.446800
      2 C4           1.0740    -0.1840     0.3940 c6         1 TXB       0.012300
      3 C5           0.4290    -1.5760     0.1800 c6         1 TXB       0.168600
      4 O5          -0.8540    -1.6340     0.8530 os         1 TXB      -0.479000
      5 C1          -1.8300    -0.6710     0.4170 c6         1 TXB       0.343300
      6 O1          -2.1530    -0.9730    -0.9390 oh         1 TXB      -0.718000
      7 C2          -1.2890     0.7960     0.5660 c6         1 TXB       0.163300
      8 O2          -2.2450     1.7380     0.0220 oh         1 TXB      -0.680000
      9 C3           0.1150     0.9240    -0.1200 c6         1 TXB       0.193300
     10 O3           0.7150     2.2160     0.1090 oh         1 TXB      -0.706000
     11 HS4          3.3300    -1.0840     0.1770 hs         1 TXB       0.218800
     12 H4           1.2410    -0.0430     1.4720 h1         1 TXB       0.080700
     13 H51C         0.3010    -1.7810    -0.8930 h1         1 TXB       0.065700
     14 H52C         1.0820    -2.3570     0.5950 h1         1 TXB       0.065700
     15 H3          -0.0230     0.7690    -1.2020 h1         1 TXB       0.073700
     16 H1          -2.7340    -0.7750     1.0390 h2         1 TXB       0.059700
     17 HA          -2.4120    -1.9220    -0.9310 ho         1 TXB       0.513000
     18 H2          -1.1580     0.9900     1.6410 h1         1 TXB       0.049700
     19 HB          -2.5870     1.3080    -0.7980 ho         1 TXB       0.502000
     20 HC           1.6530     2.1220    -0.1790 ho         1 TXB       0.519000
@<TRIPOS>BOND
     1     1     2 1   
     2     1    11 1   
     3     2     3 1   
     4     2     9 1   
     5     2    12 1   
     6     3     4 1   
     7     3    13 1   
     8     3    14 1   
     9     4     5 1   
    10     5     6 1   
    11     5     7 1   
    12     5    16 1   
    13     6    17 1   
    14     7     8 1   
    15     7     9 1   
    16     7    18 1   
    17     8    19 1   
    18     9    10 1   
    19     9    15 1   
    20    10    20 1   
@<TRIPOS>SUBSTRUCTURE
     1 TXB         1 TEMP              0 ****  ****    0 ROOT
