@<TRIPOS>MOLECULE
TXB
   20    20     1     0     0
SMALL
abcg2


@<TRIPOS>ATOM
      1 S4           2.6870    -0.2000    -0.4000 sh         1 TXB      -0.446800
      2 C4           1.0420    -0.2720     0.3960 c6         1 TXB       0.012300
      3 C5           0.4160    -1.6420     0.1900 c6         1 TXB       0.168600
      4 O5          -0.8890    -1.6820     0.7340 os         1 TXB      -0.479000
      5 C1          -1.7720    -0.7390     0.1820 c6         1 TXB       0.343300
      6 O1          -1.9780    -0.9290    -1.1780 oh         1 TXB      -0.718000
      7 C2          -1.2410     0.6840     0.4040 c6         1 TXB       0.163300
      8 O2          -2.0730     1.6530    -0.1730 oh         1 TXB      -0.680000
      9 C3           0.1560     0.8320    -0.1850 c6         1 TXB       0.193300
     10 O3           0.6350     2.1090     0.1410 oh         1 TXB      -0.706000
     11 HS4          3.4260    -0.3820     0.6980 hs         1 TXB       0.218800
     12 H4           1.1840    -0.0840     1.4630 h1         1 TXB       0.080700
     13 H51C         0.4150    -1.9000    -0.8750 h1         1 TXB       0.065700
     14 H52C         0.9970    -2.4030     0.7110 h1         1 TXB       0.065700
     15 H3           0.0990     0.7000    -1.2770 h1         1 TXB       0.073700
     16 H1          -2.7040    -0.8720     0.7470 h2         1 TXB       0.059700
     17 HA          -2.4960    -1.7300    -1.3070 ho         1 TXB       0.513000
     18 H2          -1.1610     0.8220     1.4920 h1         1 TXB       0.049700
     19 HB          -2.9110     1.6600     0.3010 ho         1 TXB       0.502000
     20 HC           1.5500     2.1630    -0.1620 ho         1 TXB       0.519000
@<TRIPOS>BOND
     1     1     2 1   
     2     1    11 1   
     3     2     3 1   
     4     2     9 1   
     5     2    12 1   
     6     3     4 1   
     7     3    13 1   
     8     3    14 1   
     9     4     5 1   
    10     5     6 1   
    11     5     7 1   
    12     5    16 1   
    13     6    17 1   
    14     7     8 1   
    15     7     9 1   
    16     7    18 1   
    17     8    19 1   
    18     9    10 1   
    19     9    15 1   
    20    10    20 1   
@<TRIPOS>SUBSTRUCTURE
     1 TXB         1 TEMP              0 ****  ****    0 ROOT
