@<TRIPOS>MOLECULE
TXC
   43    44     1     0     0
SMALL
bcc


@<TRIPOS>ATOM
      1 CG2          4.5280     2.4200     1.0950 c3         1 TXC      -0.088600
      2 CB           3.8640     1.3790     0.2010 c3         1 TXC      -0.045700
      3 CG1          3.4550     1.9900    -1.1360 c3         1 TXC      -0.088600
      4 CA           4.7850     0.1500     0.0300 c3         1 TXC       0.118500
      5 N            6.0260     0.5010    -0.6170 n8         1 TXC      -0.874800
      6 C            4.0360    -0.9740    -0.6740 c          1 TXC       0.603100
      7 O            4.2950    -1.3930    -1.7750 o          1 TXC      -0.549000
      8 OAO          3.0440    -1.4400     0.0710 os         1 TXC      -0.415900
      9 CAI          2.2000    -2.4580    -0.4710 c3         1 TXC       0.140400
     10 CAH          1.0630    -2.6670     0.4920 c3         1 TXC       0.141400
     11 OAN          0.2770    -1.4990     0.5260 os         1 TXC      -0.413600
     12 CAJ         -0.7050    -1.5350     1.5170 c3         1 TXC       0.260100
     13 N9          -1.4560    -0.3190     1.4430 na         1 TXC      -0.204900
     14 C8          -1.1480     0.8750     2.0490 cc         1 TXC       0.411400
     15 N7          -1.9660     1.8280     1.7320 nd         1 TXC      -0.593000
     16 C5          -2.8570     1.2470     0.8650 cd         1 TXC       0.154800
     17 C4          -2.5500    -0.0860     0.6670 cc         1 TXC       0.140800
     18 N3          -3.1780    -0.9820    -0.1030 nc         1 TXC      -0.707100
     19 C2          -4.2210    -0.4860    -0.7220 cd         1 TXC       0.736800
     20 N2          -4.9770    -1.2750    -1.4980 nv         1 TXC      -0.934800
     21 N1          -4.6130     0.8160    -0.5930 ns         1 TXC      -0.525400
     22 C6          -3.9870     1.7940     0.1910 c          1 TXC       0.664000
     23 O6          -4.4230     2.9320     0.2270 o          1 TXC      -0.589500
     24 HG21         3.8640     3.2710     1.2490 hc         1 TXC       0.038533
     25 HG22         4.7720     2.0050     2.0740 hc         1 TXC       0.038533
     26 HG23         5.4510     2.7880     0.6470 hc         1 TXC       0.038533
     27 HB           2.9570     1.0340     0.7070 hc         1 TXC       0.060700
     28 HG11         2.9450     1.2780    -1.7880 hc         1 TXC       0.038533
     29 HG12         2.7680     2.8210    -0.9720 hc         1 TXC       0.038533
     30 HG13         4.3150     2.3880    -1.6780 hc         1 TXC       0.038533
     31 HA           5.0230    -0.2120     1.0360 h1         1 TXC       0.079700
     32 HN1          6.6760    -0.2730    -0.5670 hn         1 TXC       0.354800
     33 HN2          5.8780     0.6760    -1.6030 hn         1 TXC       0.354800
     34 HAI1         1.8240    -2.1630    -1.4530 h1         1 TXC       0.061700
     35 HAI2         2.7530    -3.3920    -0.5850 h1         1 TXC       0.061700
     36 HAH1         0.4790    -3.5310     0.1500 h1         1 TXC       0.037700
     37 HAH2         1.4520    -2.9140     1.4890 h1         1 TXC       0.037700
     38 HAJ1        -1.3940    -2.3750     1.3830 h2         1 TXC       0.051200
     39 HAJ2        -0.2650    -1.6090     2.5170 h2         1 TXC       0.051200
     40 H8          -0.3070     0.9580     2.7210 h5         1 TXC       0.061100
     41 H21N        -4.6200    -2.1890    -1.7200 hn         1 TXC       0.445800
     42 H22N        -5.6410    -0.8860    -2.1450 hn         1 TXC       0.445800
     43 H1          -5.4360     1.1210    -1.0960 hn         1 TXC       0.322500
@<TRIPOS>BOND
     1     1     2 1   
     2     1    24 1   
     3     1    25 1   
     4     1    26 1   
     5     2     3 1   
     6     2     4 1   
     7     2    27 1   
     8     3    28 1   
     9     3    29 1   
    10     3    30 1   
    11     4     5 1   
    12     4     6 1   
    13     4    31 1   
    14     5    32 1   
    15     5    33 1   
    16     6     7 2   
    17     6     8 1   
    18     8     9 1   
    19     9    10 1   
    20     9    34 1   
    21     9    35 1   
    22    10    11 1   
    23    10    36 1   
    24    10    37 1   
    25    11    12 1   
    26    12    13 1   
    27    12    38 1   
    28    12    39 1   
    29    13    14 1   
    30    13    17 1   
    31    14    15 2   
    32    14    40 1   
    33    15    16 1   
    34    16    17 2   
    35    16    22 1   
    36    17    18 1   
    37    18    19 2   
    38    19    20 1   
    39    19    21 1   
    40    20    41 1   
    41    20    42 1   
    42    21    22 1   
    43    21    43 1   
    44    22    23 2   
@<TRIPOS>SUBSTRUCTURE
     1 TXC         1 TEMP              0 ****  ****    0 ROOT
