@<TRIPOS>MOLECULE
TXC
   43    44     1     0     0
SMALL
No Charge or Current Charge


@<TRIPOS>ATOM
      1 CG2          4.8660     2.4820     1.1120 c3         1 TXC      -0.088600
      2 CB           4.1950     1.4840     0.1370 c3         1 TXC      -0.045700
      3 CG1          3.8890     2.1510    -1.2290 c3         1 TXC      -0.088600
      4 CA           4.9920     0.1460     0.0060 c3         1 TXC       0.118500
      5 N            6.3650     0.3770    -0.5740 n8         1 TXC      -0.985200
      6 C            4.1390    -0.9610    -0.7110 c          1 TXC       0.554100
      7 O            4.4240    -1.4510    -1.7990 o          1 TXC      -0.500000
      8 OAO          3.0810    -1.3710     0.0600 os         1 TXC      -0.439100
      9 CAI          2.2080    -2.3910    -0.4700 c3         1 TXC       0.163600
     10 CAH          1.0670    -2.6370     0.5420 c3         1 TXC       0.164600
     11 OAN          0.2100    -1.4800     0.5600 os         1 TXC      -0.460000
     12 CAJ         -0.8830    -1.5670     1.4880 c3         1 TXC       0.312600
     13 N9          -1.6500    -0.3280     1.3700 na         1 TXC      -0.183500
     14 C8          -1.3850     0.8530     2.0310 cc         1 TXC       0.411400
     15 N7          -2.3000     1.7800     1.7610 nd         1 TXC      -0.593000
     16 C5          -3.2010     1.1610     0.9020 cd         1 TXC       0.089500
     17 C4          -2.8110    -0.1370     0.6680 cc         1 TXC       0.155400
     18 N3          -3.4920    -1.0400    -0.1250 nc         1 TXC      -0.707100
     19 C2          -4.5740    -0.5330    -0.6620 cd         1 TXC       0.736800
     20 N2          -5.2570    -1.3540    -1.4360 nv         1 TXC      -1.045200
     21 N1          -5.0520     0.7180    -0.5140 ns         1 TXC      -0.458400
     22 C6          -4.4470     1.6680     0.2570 c          1 TXC       0.521500
     23 O6          -4.9090     2.7950     0.3810 o          1 TXC      -0.514000
     24 HG21         4.2250     3.3580     1.2690 hc         1 TXC       0.038533
     25 HG22         5.0400     2.0130     2.0880 hc         1 TXC       0.038533
     26 HG23         5.8290     2.8330     0.7220 hc         1 TXC       0.038533
     27 HB           3.2250     1.2320     0.5850 hc         1 TXC       0.060700
     28 HG11         3.3550     1.4620    -1.8940 hc         1 TXC       0.038533
     29 HG12         3.2570     3.0360    -1.0900 hc         1 TXC       0.038533
     30 HG13         4.8100     2.4700    -1.7300 hc         1 TXC       0.038533
     31 HA           5.1360    -0.2360     1.0270 h1         1 TXC       0.079700
     32 HN1          6.8650    -0.5200    -0.6200 hn         1 TXC       0.410000
     33 HN2          6.2640     0.6330    -1.5630 hn         1 TXC       0.410000
     34 HAI1         1.7780    -2.0850    -1.4330 h1         1 TXC       0.061700
     35 HAI2         2.7590    -3.3290    -0.6220 h1         1 TXC       0.061700
     36 HAH1         0.5020    -3.5270     0.2330 h1         1 TXC       0.037700
     37 HAH2         1.4940    -2.8290     1.5350 h1         1 TXC       0.037700
     38 HAJ1        -1.5420    -2.4110     1.2560 h2         1 TXC       0.051200
     39 HAJ2        -0.5270    -1.6600     2.5210 h2         1 TXC       0.051200
     40 H8          -0.5240     0.9720     2.6780 h5         1 TXC       0.061100
     41 H21N        -4.7510    -2.2020    -1.6590 hn         1 TXC       0.501000
     42 H22N        -5.7680    -0.9440    -2.2080 hn         1 TXC       0.501000
     43 H1          -5.9130     0.9840    -0.9650 hn         1 TXC       0.322500
@<TRIPOS>BOND
     1     1     2 1   
     2     1    24 1   
     3     1    25 1   
     4     1    26 1   
     5     2     3 1   
     6     2     4 1   
     7     2    27 1   
     8     3    28 1   
     9     3    29 1   
    10     3    30 1   
    11     4     5 1   
    12     4     6 1   
    13     4    31 1   
    14     5    32 1   
    15     5    33 1   
    16     6     7 2   
    17     6     8 1   
    18     8     9 1   
    19     9    10 1   
    20     9    34 1   
    21     9    35 1   
    22    10    11 1   
    23    10    36 1   
    24    10    37 1   
    25    11    12 1   
    26    12    13 1   
    27    12    38 1   
    28    12    39 1   
    29    13    14 1   
    30    13    17 1   
    31    14    15 2   
    32    14    40 1   
    33    15    16 1   
    34    16    17 2   
    35    16    22 1   
    36    17    18 1   
    37    18    19 2   
    38    19    20 1   
    39    19    21 1   
    40    20    41 1   
    41    20    42 1   
    42    21    22 1   
    43    21    43 1   
    44    22    23 2   
@<TRIPOS>SUBSTRUCTURE
     1 TXC         1 TEMP              0 ****  ****    0 ROOT
