@<TRIPOS>MOLECULE
TXD
   73    77     1     0     0
SMALL
No Charge or Current Charge


@<TRIPOS>ATOM
      1 O7N         -5.6530    -0.1510     2.2990 o          1 TXD      -0.575100
      2 C7N         -5.2400     0.9980     2.2830 c          1 TXD       0.614100
      3 N7N         -6.0560     1.9980     1.8700 nt         1 TXD      -0.632000
      4 C3N         -3.8200     1.4070     2.7450 c6         1 TXD      -0.097500
      5 C2N         -2.9960     2.0040     1.5700 c6         1 TXD       0.191800
      6 C4N         -3.0480     0.3240     3.5020 c2         1 TXD      -0.282200
      7 C5N         -1.9510    -0.2470     2.9800 c2         1 TXD      -0.147200
      8 C6N         -1.3710     0.1460     1.6250 c6         1 TXD       0.184000
      9 N1N         -2.3120     0.9470     0.7780 n3         1 TXD      -0.736600
     10 C1'A        -1.8070     1.3990    -0.5560 c5         1 TXD       0.396500
     11 O4'A        -1.1520     0.2700    -1.1770 os         1 TXD      -0.420000
     12 C2'A        -0.7130     2.5320    -0.4260 c5         1 TXD       0.055300
     13 O2'A        -1.2180     3.8780    -0.4840 oh         1 TXD      -0.714000
     14 C3'A         0.1120     2.2290    -1.7100 c5         1 TXD       0.097300
     15 O3'A        -0.5710     2.7120    -2.8870 oh         1 TXD      -0.741000
     16 C4'A         0.1750     0.6680    -1.6300 c5         1 TXD       0.121300
     17 C5'A         1.2930     0.1480    -0.6730 c3         1 TXD       0.220600
     18 O5'A         1.1570    -1.2670    -0.4860 os         1 TXD      -0.574400
     19 PN           2.1000    -1.9830     0.6060 p5         1 TXD       1.450800
     20 O1N          1.9830    -3.4640     0.4550 o          1 TXD      -0.833000
     21 O2N          3.5010    -1.4910     0.4600 o          1 TXD      -0.833000
     22 O3           1.3600    -1.4130     1.8730 os         1 TXD      -0.740800
     23 PA           1.7660    -2.1400     3.2090 p5         1 TXD       1.451800
     24 O2P          3.2210    -2.4210     3.3810 o          1 TXD      -0.831000
     25 O1P          0.9090    -3.3320     3.4770 o          1 TXD      -0.831000
     26 O5           1.3280    -0.9430     4.1910 os         1 TXD      -0.583400
     27 C5           2.1330     0.2440     4.2260 c3         1 TXD       0.247600
     28 C4           1.2040     1.4770     4.3840 c5         1 TXD       0.132300
     29 C3           1.8210     2.8170     3.8910 c5         1 TXD       0.092300
     30 O6           1.8140     2.9570     2.4600 oh         1 TXD      -0.688000
     31 C2           0.8410     3.8200     4.5570 c5         1 TXD       0.101300
     32 O2          -0.3630     3.8950     3.7790 oh         1 TXD      -0.712000
     33 C1           0.6420     3.1430     5.9610 c5         1 TXD       0.273300
     34 O4           0.9310     1.7330     5.7830 os         1 TXD      -0.419000
     35 N9A          1.5000     3.6680     7.0220 na         1 TXD      -0.293300
     36 C4A          1.4330     4.8930     7.6340 ca         1 TXD       0.104500
     37 N3A          0.5910     5.9290     7.4410 nb         1 TXD      -0.207000
     38 C2A          0.8010     7.0180     8.2170 ca         1 TXD       0.158900
     39 N1A          1.7640     7.1670     9.1580 nb         1 TXD      -0.320000
     40 C6A          2.5830     6.1190     9.3300 ca         1 TXD       0.439900
     41 N6A          3.5510     6.2700    10.2730 nv         1 TXD      -1.075900
     42 C5A          2.4420     4.9410     8.5630 ca         1 TXD      -0.090600
     43 N7A          3.1920     3.7710     8.5930 nc         1 TXD      -0.582100
     44 C8A          2.5860     3.0250     7.6480 cd         1 TXD       0.445700
     45 H7N1        -6.9930     1.7770     1.5680 hn         1 TXD       0.296000
     46 H7N2        -5.7270     2.9520     1.8690 hn         1 TXD       0.296000
     47 H2N1        -3.6500     2.6090     0.9250 h1         1 TXD       0.030200
     48 H2N2        -2.2440     2.6910     1.9860 h1         1 TXD       0.030200
     49 H6N1        -0.4400     0.7010     1.8070 h1         1 TXD       0.094200
     50 H6N2        -1.0800    -0.7760     1.1000 h1         1 TXD       0.094200
     51 H3N         -3.9730     2.2820     3.3920 hc         1 TXD       0.040700
     52 H4N         -3.4360     0.0230     4.4770 ha         1 TXD       0.168000
     53 H5N         -1.4070    -1.0250     3.5190 ha         1 TXD       0.217000
     54 H1'A        -2.6320     1.7380    -1.1970 h2         1 TXD       0.032700
     55 H2'A        -0.1030     2.3890     0.4760 h1         1 TXD       0.112700
     56 HO2A        -1.2450     4.0730    -1.4540 ho         1 TXD       0.498000
     57 H3'A         1.1190     2.6680    -1.6440 h1         1 TXD       0.096700
     58 HO3A        -1.0400     1.9450    -3.2940 ho         1 TXD       0.505000
     59 H4'A         0.3610     0.2240    -2.6170 h1         1 TXD       0.077700
     60 H5'1         1.2380     0.6730     0.2880 h1         1 TXD       0.020200
     61 H5'2         2.2670     0.3820    -1.1220 h1         1 TXD       0.020200
     62 H5'A         2.8480     0.2100     5.0580 h1         1 TXD       0.028200
     63 H5'B         2.7050     0.3590     3.2950 h1         1 TXD       0.028200
     64 H4           0.2550     1.2790     3.8720 h1         1 TXD       0.082700
     65 H3           2.8390     2.9390     4.2900 h1         1 TXD       0.048700
     66 HO3          2.6180     3.4710     2.2080 ho         1 TXD       0.506000
     67 H2           1.2960     4.8160     4.6580 h1         1 TXD       0.091700
     68 HO2         -0.0580     3.6570     2.8680 ho         1 TXD       0.529000
     69 H1          -0.3900     3.2810     6.3070 h2         1 TXD       0.101700
     70 H2A          0.1280     7.8610     8.0680 h5         1 TXD       0.033100
     71 H6A1         4.3060     5.5870    10.2630 hn         1 TXD       0.498500
     72 H6A2         3.7920     7.2120    10.5680 hn         1 TXD       0.498500
     73 H8A          2.8800     2.0200     7.3630 h5         1 TXD       0.104800
@<TRIPOS>BOND
     1     1     2 2   
     2     2     3 1   
     3     2     4 1   
     4     3    45 1   
     5     3    46 1   
     6     4     5 1   
     7     4     6 1   
     8     4    51 1   
     9     5     9 1   
    10     5    47 1   
    11     5    48 1   
    12     6     7 2   
    13     6    52 1   
    14     7     8 1   
    15     7    53 1   
    16     8     9 1   
    17     8    49 1   
    18     8    50 1   
    19     9    10 1   
    20    10    11 1   
    21    10    12 1   
    22    10    54 1   
    23    11    16 1   
    24    12    13 1   
    25    12    14 1   
    26    12    55 1   
    27    13    56 1   
    28    14    15 1   
    29    14    16 1   
    30    14    57 1   
    31    15    58 1   
    32    16    17 1   
    33    16    59 1   
    34    17    18 1   
    35    17    60 1   
    36    17    61 1   
    37    18    19 1   
    38    19    20 1   
    39    19    21 1   
    40    19    22 1   
    41    22    23 1   
    42    23    24 1   
    43    23    25 1   
    44    23    26 1   
    45    26    27 1   
    46    27    28 1   
    47    27    62 1   
    48    27    63 1   
    49    28    29 1   
    50    28    34 1   
    51    28    64 1   
    52    29    30 1   
    53    29    31 1   
    54    29    65 1   
    55    30    66 1   
    56    31    32 1   
    57    31    33 1   
    58    31    67 1   
    59    32    68 1   
    60    33    34 1   
    61    33    35 1   
    62    33    69 1   
    63    35    36 1   
    64    35    44 1   
    65    36    37 ar  
    66    36    42 ar  
    67    37    38 ar  
    68    38    39 ar  
    69    38    70 1   
    70    39    40 ar  
    71    40    41 1   
    72    40    42 ar  
    73    41    71 1   
    74    41    72 1   
    75    42    43 1   
    76    43    44 2   
    77    44    73 1   
@<TRIPOS>SUBSTRUCTURE
     1 TXD         1 TEMP              0 ****  ****    0 ROOT
