@<TRIPOS>MOLECULE
TXD
   73    77     1     0     0
SMALL
abcg2


@<TRIPOS>ATOM
      1 O7N         -5.1820    -0.1030     1.7680 o          1 TXD      -0.575100
      2 C7N         -5.0190     1.1050     1.8200 c          1 TXD       0.614100
      3 N7N         -5.8990     1.9820     1.3090 nt         1 TXD      -0.632000
      4 C3N         -3.7900     1.7470     2.4550 c6         1 TXD      -0.097500
      5 C2N         -2.8150     2.2280     1.3760 c6         1 TXD       0.191800
      6 C4N         -3.0910     0.7870     3.3650 c2         1 TXD      -0.282200
      7 C5N         -1.9740     0.1710     2.9910 c2         1 TXD      -0.147200
      8 C6N         -1.3350     0.3480     1.6540 c6         1 TXD       0.184000
      9 N1N         -2.1860     1.0860     0.7460 n3         1 TXD      -0.736600
     10 C1'A        -1.6010     1.3940    -0.5350 c5         1 TXD       0.396500
     11 O4'A        -1.0970     0.2080    -1.1120 os         1 TXD      -0.420000
     12 C2'A        -0.4330     2.4070    -0.5800 c5         1 TXD       0.055300
     13 O2'A        -0.8370     3.7400    -0.6990 oh         1 TXD      -0.714000
     14 C3'A         0.4000     1.8870    -1.7590 c5         1 TXD       0.097300
     15 O3'A        -0.0900     2.3820    -2.9860 oh         1 TXD      -0.741000
     16 C4'A         0.2340     0.3840    -1.5890 c5         1 TXD       0.121300
     17 C5'A         1.2820    -0.1680    -0.6350 c3         1 TXD       0.220600
     18 O5'A         0.9760    -1.5070    -0.3280 os         1 TXD      -0.574400
     19 PN           1.9890    -2.3500     0.6540 p5         1 TXD       1.450800
     20 O1N          1.4430    -3.7400     0.6990 o          1 TXD      -0.833000
     21 O2N          3.4070    -2.0810     0.2660 o          1 TXD      -0.833000
     22 O3           1.6350    -1.5710     2.0600 os         1 TXD      -0.740800
     23 PA           2.3250    -1.8270     3.5310 p5         1 TXD       1.451800
     24 O2P          3.8020    -1.6150     3.4420 o          1 TXD      -0.831000
     25 O1P          1.7480    -3.0550     4.1540 o          1 TXD      -0.831000
     26 O5           1.6290    -0.5680     4.3240 os         1 TXD      -0.583400
     27 C5           1.9810     0.7570     3.9970 c3         1 TXD       0.247600
     28 C4           0.8680     1.6620     4.4550 c5         1 TXD       0.132300
     29 C3           1.0060     3.1260     4.0580 c5         1 TXD       0.092300
     30 O6           0.6390     3.2980     2.7250 oh         1 TXD      -0.688000
     31 C2           0.0860     3.7880     5.0940 c5         1 TXD       0.101300
     32 O2          -1.2740     3.7010     4.7690 oh         1 TXD      -0.712000
     33 C1           0.4360     2.9550     6.3370 c5         1 TXD       0.273300
     34 O4           0.7690     1.6780     5.8810 os         1 TXD      -0.419000
     35 N9A          1.5780     3.5120     7.0570 na         1 TXD      -0.293300
     36 C4A          1.5480     4.6490     7.8080 ca         1 TXD       0.104500
     37 N3A          0.5160     5.4630     8.0250 nb         1 TXD      -0.207000
     38 C2A          0.8510     6.4750     8.8060 ca         1 TXD       0.158900
     39 N1A          2.0350     6.7430     9.3520 nb         1 TXD      -0.320000
     40 C6A          3.0610     5.9150     9.1240 ca         1 TXD       0.439900
     41 N6A          4.2460     6.1750     9.6780 nv         1 TXD      -1.075900
     42 C5A          2.8330     4.7910     8.3080 ca         1 TXD      -0.090600
     43 N7A          3.6350     3.7660     7.8820 nc         1 TXD      -0.582100
     44 C8A          2.8550     3.0280     7.1460 cd         1 TXD       0.445700
     45 H7N1        -6.7240     1.6620     0.8290 hn         1 TXD       0.296000
     46 H7N2        -5.7640     2.9760     1.3810 hn         1 TXD       0.296000
     47 H2N1        -3.3400     2.8140     0.6190 h1         1 TXD       0.030200
     48 H2N2        -2.0900     2.9060     1.8500 h1         1 TXD       0.030200
     49 H6N1        -0.3520     0.8240     1.8070 h1         1 TXD       0.094200
     50 H6N2        -1.1140    -0.6350     1.2360 h1         1 TXD       0.094200
     51 H3N         -4.1180     2.6250     3.0230 hc         1 TXD       0.040700
     52 H4N         -3.5200     0.5980     4.3420 ha         1 TXD       0.168000
     53 H5N         -1.4720    -0.5110     3.6680 ha         1 TXD       0.217000
     54 H1'A        -2.4210     1.7880    -1.1570 h2         1 TXD       0.032700
     55 H2'A         0.1580     2.3460     0.3380 h1         1 TXD       0.112700
     56 HO2A        -1.1050     3.8890    -1.6130 ho         1 TXD       0.498000
     57 H3'A         1.4460     2.1980    -1.6940 h1         1 TXD       0.096700
     58 HO3A        -0.8710     1.8860    -3.2570 ho         1 TXD       0.505000
     59 H4'A         0.3160    -0.1430    -2.5460 h1         1 TXD       0.077700
     60 H5'1         1.3300     0.4440     0.2730 h1         1 TXD       0.020200
     61 H5'2         2.2570    -0.0850    -1.1280 h1         1 TXD       0.020200
     62 H5'A         2.9290     1.0480     4.4650 h1         1 TXD       0.028200
     63 H5'B         2.0970     0.8960     2.9160 h1         1 TXD       0.028200
     64 H4          -0.0690     1.2710     4.0410 h1         1 TXD       0.082700
     65 H3           2.0360     3.4660     4.2380 h1         1 TXD       0.048700
     66 HO3          0.8410     4.2000     2.4580 ho         1 TXD       0.506000
     67 H2           0.3030     4.8470     5.2430 h1         1 TXD       0.091700
     68 HO2         -1.5030     2.8130     4.4660 ho         1 TXD       0.529000
     69 H1          -0.4020     2.9090     7.0380 h2         1 TXD       0.101700
     70 H2A          0.0630     7.1850     9.0340 h5         1 TXD       0.033100
     71 H6A1         5.0500     5.6080     9.4720 hn         1 TXD       0.498500
     72 H6A2         4.3840     7.0210    10.2040 hn         1 TXD       0.498500
     73 H8A          3.1580     2.1170     6.6550 h5         1 TXD       0.104800
@<TRIPOS>BOND
     1     1     2 2   
     2     2     3 1   
     3     2     4 1   
     4     3    45 1   
     5     3    46 1   
     6     4     5 1   
     7     4     6 1   
     8     4    51 1   
     9     5     9 1   
    10     5    47 1   
    11     5    48 1   
    12     6     7 2   
    13     6    52 1   
    14     7     8 1   
    15     7    53 1   
    16     8     9 1   
    17     8    49 1   
    18     8    50 1   
    19     9    10 1   
    20    10    11 1   
    21    10    12 1   
    22    10    54 1   
    23    11    16 1   
    24    12    13 1   
    25    12    14 1   
    26    12    55 1   
    27    13    56 1   
    28    14    15 1   
    29    14    16 1   
    30    14    57 1   
    31    15    58 1   
    32    16    17 1   
    33    16    59 1   
    34    17    18 1   
    35    17    60 1   
    36    17    61 1   
    37    18    19 1   
    38    19    20 1   
    39    19    21 1   
    40    19    22 1   
    41    22    23 1   
    42    23    24 1   
    43    23    25 1   
    44    23    26 1   
    45    26    27 1   
    46    27    28 1   
    47    27    62 1   
    48    27    63 1   
    49    28    29 1   
    50    28    34 1   
    51    28    64 1   
    52    29    30 1   
    53    29    31 1   
    54    29    65 1   
    55    30    66 1   
    56    31    32 1   
    57    31    33 1   
    58    31    67 1   
    59    32    68 1   
    60    33    34 1   
    61    33    35 1   
    62    33    69 1   
    63    35    36 1   
    64    35    44 1   
    65    36    37 ar  
    66    36    42 ar  
    67    37    38 ar  
    68    38    39 ar  
    69    38    70 1   
    70    39    40 ar  
    71    40    41 1   
    72    40    42 ar  
    73    41    71 1   
    74    41    72 1   
    75    42    43 1   
    76    43    44 2   
    77    44    73 1   
@<TRIPOS>SUBSTRUCTURE
     1 TXD         1 TEMP              0 ****  ****    0 ROOT
