@<TRIPOS>MOLECULE
TXE
   73    77     1     0     0
SMALL
bcc


@<TRIPOS>ATOM
      1 O3           0.9980     1.4820     0.0660 os         1 TXE      -0.703800
      2 PA           0.0480     1.1010    -1.2030 p5         1 TXE       1.459800
      3 PN           1.1150     2.9870     0.7200 p5         1 TXE       1.458800
      4 C1B          5.9580     0.6260     0.6180 c5         1 TXE       0.416300
      5 C2B          6.4280     1.6650    -0.4070 c5         1 TXE       0.067100
      6 C3B          6.2700     2.9780     0.3590 c5         1 TXE       0.072100
      7 C4B          5.0070     2.7000     1.1620 c5         1 TXE       0.138100
      8 C5B          3.7320     3.0260     0.4050 c3         1 TXE       0.194400
      9 O2B          7.7410     1.3770    -0.8040 oh         1 TXE      -0.596800
     10 O3B          7.3370     3.1740     1.2530 oh         1 TXE      -0.595800
     11 O4B          5.0750     1.3210     1.4930 os         1 TXE      -0.411600
     12 O5B          2.6460     2.8800     1.2940 os         1 TXE      -0.560200
     13 C1          -3.7120    -2.0910    -0.1090 c5         1 TXE       0.271800
     14 N1A         -8.0070    -0.0470     1.7440 nb         1 TXE      -0.854000
     15 N1N          5.3750    -0.5550     0.0570 nh         1 TXE      -0.655400
     16 O1N          0.2430     3.0630     1.9310 o          1 TXE      -0.839000
     17 O1P          0.8180     1.1120    -2.4860 o          1 TXE      -0.854000
     18 C2          -3.7540    -2.4990    -1.5830 c5         1 TXE       0.045100
     19 O2          -4.9020    -3.2510    -1.8400 oh         1 TXE      -0.582800
     20 C2A         -7.6050    -1.3110     1.6290 ca         1 TXE       0.669900
     21 C2N          5.1880    -1.6640     0.9740 c6         1 TXE       0.214800
     22 O2N          1.0490     4.0120    -0.3700 o          1 TXE      -0.839000
     23 O2P         -1.2610     1.8350    -1.1200 o          1 TXE      -0.854000
     24 C3          -2.4340    -3.2640    -1.7180 c5         1 TXE       0.076100
     25 O6          -2.5380    -4.5500    -1.1670 oh         1 TXE      -0.588800
     26 N3A         -6.4680    -1.7700     1.1370 nb         1 TXE      -0.736000
     27 C3N          3.7410    -1.7480     1.4890 c6         1 TXE      -0.182700
     28 C4          -1.5260    -2.4210    -0.8370 c5         1 TXE       0.133100
     29 O4          -2.3640    -1.9180     0.2080 os         1 TXE      -0.362600
     30 C4A         -5.6740    -0.7830     0.7260 ca         1 TXE       0.430800
     31 C4N          2.8260    -2.0070     0.2940 c6         1 TXE      -0.026200
     32 C5          -0.8810    -1.2900    -1.6150 c3         1 TXE       0.189400
     33 O5          -0.1920    -0.4570    -0.7190 os         1 TXE      -0.540200
     34 C5A         -5.9520     0.5740     0.7820 ca         1 TXE      -0.209200
     35 C5N          3.2040    -1.1120    -0.8400 c2         1 TXE      -0.179200
     36 C6A         -7.1980     0.9330     1.3280 ca         1 TXE       0.760200
     37 N6A         -7.6010     2.2020     1.4320 nv         1 TXE      -0.966500
     38 C6N          4.3430    -0.4210    -0.8760 c2         1 TXE      -0.007000
     39 N7A         -4.9050     1.3050     0.2860 nc         1 TXE      -0.557100
     40 C7N          3.6300    -2.8440     2.5250 c          1 TXE       0.682100
     41 N7N          3.3240    -2.4390     3.7660 nt         1 TXE      -0.673000
     42 O7N          3.8300    -4.0190     2.2410 o          1 TXE      -0.652100
     43 C8A         -4.0200     0.4170    -0.0650 cd         1 TXE       0.467700
     44 N9A         -4.4280    -0.8690     0.1770 na         1 TXE      -0.267000
     45 H2'A         5.7560     1.7000    -1.2710 h1         1 TXE       0.071700
     46 H3'A         6.1520     3.8330    -0.3190 h1         1 TXE       0.049700
     47 H4'A         5.0150     3.2860     2.0880 h1         1 TXE       0.086700
     48 H5'A         3.7920     4.0530     0.0310 h1         1 TXE       0.025200
     49 H5'B         3.6280     2.3630    -0.4620 h1         1 TXE       0.025200
     50 H2'B         7.9210     1.8370    -1.6300 ho         1 TXE       0.396000
     51 H3'B         8.1520     2.9540     0.7860 ho         1 TXE       0.397000
     52 H2          -3.7160    -1.6010    -2.2110 h1         1 TXE       0.070700
     53 HO2         -5.0810    -3.2310    -2.7850 ho         1 TXE       0.399000
     54 H2A         -8.3060    -2.0570     1.9890 h5         1 TXE       0.021100
     55 H2N          5.4290    -2.5990     0.4590 h1         1 TXE       0.040700
     56 H2NA         5.8950    -1.5630     1.7990 h1         1 TXE       0.040700
     57 H3          -2.0830    -3.2930    -2.7590 h1         1 TXE       0.048700
     58 HO3         -3.3350    -4.9620    -1.5200 ho         1 TXE       0.403000
     59 H3N          3.4800    -0.7800     1.9230 hc         1 TXE       0.104700
     60 H4          -0.7440    -3.0310    -0.3740 h1         1 TXE       0.096700
     61 H4N          2.8800    -3.0610     0.0020 hc         1 TXE       0.065700
     62 H4NA         1.7850    -1.8120     0.5610 hc         1 TXE       0.065700
     63 H5          -0.2020    -1.7320    -2.3530 h1         1 TXE       0.011700
     64 H5'C        -1.6460    -0.7360    -2.1760 h1         1 TXE       0.011700
     65 H5N          2.4910    -0.9640    -1.6390 ha         1 TXE       0.167000
     66 HN6A        -8.4600     2.4190     1.9070 hn         1 TXE       0.441300
     67 HN6B        -6.9770     2.9590     1.2140 hn         1 TXE       0.441300
     68 H6N          4.5290     0.2610    -1.6960 h4         1 TXE       0.135000
     69 HN7N         3.1470    -1.4730     3.9790 hn         1 TXE       0.310000
     70 HN7A         3.2370    -3.1040     4.5160 hn         1 TXE       0.310000
     71 H8A         -3.0460     0.6570    -0.4760 h5         1 TXE       0.155800
     72 H1'A         6.8270     0.2950     1.2000 h2         1 TXE       0.058700
     73 H1          -4.1760    -2.8680     0.5080 h2         1 TXE       0.096700
@<TRIPOS>BOND
     1     1     2 1   
     2     1     3 1   
     3     2    17 1   
     4     2    23 1   
     5     2    33 1   
     6     3    12 1   
     7     3    16 1   
     8     3    22 1   
     9     4     5 1   
    10     4    11 1   
    11     4    15 1   
    12     4    72 1   
    13     5     6 1   
    14     5     9 1   
    15     5    45 1   
    16     6     7 1   
    17     6    10 1   
    18     6    46 1   
    19     7     8 1   
    20     7    11 1   
    21     7    47 1   
    22     8    12 1   
    23     8    48 1   
    24     8    49 1   
    25     9    50 1   
    26    10    51 1   
    27    13    18 1   
    28    13    29 1   
    29    13    44 1   
    30    13    73 1   
    31    14    20 ar  
    32    14    36 ar  
    33    15    21 1   
    34    15    38 1   
    35    18    19 1   
    36    18    24 1   
    37    18    52 1   
    38    19    53 1   
    39    20    26 ar  
    40    20    54 1   
    41    21    27 1   
    42    21    55 1   
    43    21    56 1   
    44    24    25 1   
    45    24    28 1   
    46    24    57 1   
    47    25    58 1   
    48    26    30 ar  
    49    27    31 1   
    50    27    40 1   
    51    27    59 1   
    52    28    29 1   
    53    28    32 1   
    54    28    60 1   
    55    30    34 ar  
    56    30    44 1   
    57    31    35 1   
    58    31    61 1   
    59    31    62 1   
    60    32    33 1   
    61    32    63 1   
    62    32    64 1   
    63    34    36 ar  
    64    34    39 1   
    65    35    38 2   
    66    35    65 1   
    67    36    37 1   
    68    37    66 1   
    69    37    67 1   
    70    38    68 1   
    71    39    43 2   
    72    40    41 1   
    73    40    42 2   
    74    41    69 1   
    75    41    70 1   
    76    43    44 1   
    77    43    71 1   
@<TRIPOS>SUBSTRUCTURE
     1 TXE         1 TEMP              0 ****  ****    0 ROOT
