@<TRIPOS>MOLECULE
TXE
   73    77     1     0     0
SMALL
No Charge or Current Charge


@<TRIPOS>ATOM
      1 O3           0.3370     2.4440    -0.6350 os         1 TXE      -0.703800
      2 PA          -0.3040     2.0920    -2.0300 p5         1 TXE       1.459800
      3 PN           0.7420     3.9610    -0.5120 p5         1 TXE       1.458800
      4 C1B          4.3100     0.1320     0.8490 c5         1 TXE       0.439500
      5 C2B          5.4850     1.1440     0.6270 c5         1 TXE       0.090300
      6 C3B          5.0790     2.1850     1.7050 c5         1 TXE       0.095300
      7 C4B          3.5240     2.2610     1.4630 c5         1 TXE       0.161300
      8 C5B          3.1270     3.3530     0.4290 c3         1 TXE       0.217600
      9 O2B          6.8100     0.6100     0.8580 oh         1 TXE      -0.719000
     10 O3B          5.4310     1.7110     3.0140 oh         1 TXE      -0.718000
     11 O4B          3.1330     0.9530     0.9500 os         1 TXE      -0.458000
     12 O5B          1.7900     3.8000     0.7010 os         1 TXE      -0.583400
     13 C1          -2.1200    -0.5760     1.5660 c5         1 TXE       0.324300
     14 N1A         -7.3320    -0.9210     0.8670 nb         1 TXE      -0.328000
     15 N1N          4.2530    -0.7780    -0.3350 nh         1 TXE      -0.655400
     16 O1N         -0.4000     4.8060    -0.0470 o          1 TXE      -0.839000
     17 O1P          0.7000     1.6040    -3.0210 o          1 TXE      -0.854000
     18 C2          -1.8550    -2.0710     1.1340 c5         1 TXE       0.068300
     19 O2          -2.0840    -3.0370     2.1840 oh         1 TXE      -0.705000
     20 C2A         -6.4430    -1.8120     1.3670 ca         1 TXE       0.143900
     21 C2N          4.3950    -2.2450    -0.1690 c6         1 TXE       0.214800
     22 O2N          1.4460     4.5410    -1.6960 o          1 TXE      -0.839000
     23 O2P         -1.1850     3.1550    -2.6000 o          1 TXE      -0.854000
     24 C3          -0.3510    -2.0540     0.7260 c5         1 TXE       0.099300
     25 O6           0.4410    -2.3250     1.8860 oh         1 TXE      -0.711000
     26 N3A         -5.1050    -1.6380     1.4880 nb         1 TXE      -0.210000
     27 C3N          3.0900    -2.9200    -0.6070 c6         1 TXE      -0.182700
     28 C4          -0.2120    -0.5970     0.1770 c5         1 TXE       0.156300
     29 O4          -0.9640     0.1820     1.1430 os         1 TXE      -0.409000
     30 C4A         -4.6210    -0.4530     1.0620 ca         1 TXE       0.102500
     31 C4N          2.6790    -2.5550    -2.0530 c6         1 TXE      -0.026200
     32 C5          -0.7660    -0.4400    -1.2810 c3         1 TXE       0.212600
     33 O5          -1.2570     0.8850    -1.5410 os         1 TXE      -0.563400
     34 C5A         -5.4380     0.5190     0.5410 ca         1 TXE      -0.078600
     35 C5N          2.8730    -1.0600    -2.2830 c2         1 TXE      -0.229200
     36 C6A         -6.8210     0.2470     0.4520 ca         1 TXE       0.431900
     37 N6A         -7.7190     1.1420    -0.0420 nv         1 TXE      -1.076900
     38 C6N          3.5900    -0.2690    -1.4640 c2         1 TXE      -0.057000
     39 N7A         -4.7400     1.6650     0.1830 nc         1 TXE      -0.557100
     40 C7N          3.0310    -4.4080    -0.2660 c          1 TXE       0.615100
     41 N7N          2.2000    -4.7640     0.7370 nt         1 TXE      -0.606000
     42 O7N          3.6950    -5.2510    -0.8440 o          1 TXE      -0.652100
     43 C8A         -3.4710     1.3350     0.5050 cd         1 TXE       0.467700
     44 N9A         -3.3400     0.0400     1.0460 na         1 TXE      -0.296300
     45 H2'A         5.4250     1.5920    -0.3740 h1         1 TXE       0.071700
     46 H3'A         5.5640     3.1530     1.5180 h1         1 TXE       0.049700
     47 H4'A         2.9950     2.4600     2.4050 h1         1 TXE       0.086700
     48 H5'A         3.8160     4.2020     0.5210 h1         1 TXE       0.025200
     49 H5'B         3.2300     2.9460    -0.5860 h1         1 TXE       0.025200
     50 H2'B         6.9310    -0.1160     0.1990 ho         1 TXE       0.495000
     51 H3'B         6.2760     1.2190     2.8700 ho         1 TXE       0.496000
     52 H2          -2.4720    -2.3170     0.2570 h1         1 TXE       0.070700
     53 HO2         -3.0620    -3.1460     2.2760 ho         1 TXE       0.498000
     54 H2A         -6.8440    -2.7640     1.7080 h5         1 TXE       0.021100
     55 H2N          5.2190    -2.6140    -0.7970 h1         1 TXE       0.040700
     56 H2NA         4.6300    -2.5010     0.8750 h1         1 TXE       0.040700
     57 H3          -0.1440    -2.7980    -0.0560 h1         1 TXE       0.048700
     58 HO3         -0.2280    -2.7250     2.4990 ho         1 TXE       0.502000
     59 H3N          2.3350    -2.4570     0.0360 hc         1 TXE       0.104700
     60 H4           0.8330    -0.2590     0.1810 h1         1 TXE       0.096700
     61 H4N          3.2840    -3.1180    -2.7770 hc         1 TXE       0.065700
     62 H4NA         1.6300    -2.8320    -2.2280 hc         1 TXE       0.065700
     63 H5           0.0240    -0.7150    -1.9900 h1         1 TXE       0.011700
     64 H5'C        -1.5840    -1.1540    -1.4370 h1         1 TXE       0.011700
     65 H5N          2.3630    -0.6300    -3.1470 ha         1 TXE       0.217000
     66 HN6A        -8.7000     1.0080     0.1850 hn         1 TXE       0.496500
     67 HN6B        -7.4010     2.1010    -0.1590 hn         1 TXE       0.496500
     68 H6N          3.6680     0.8080    -1.6360 h4         1 TXE       0.185000
     69 HN7N         1.6570    -4.0560     1.2140 hn         1 TXE       0.310000
     70 HN7A         2.1300    -5.7350     1.0010 hn         1 TXE       0.310000
     71 H8A         -2.6070     1.9830     0.3920 h5         1 TXE       0.155800
     72 H1'A         4.4500    -0.4250     1.7860 h2         1 TXE       0.058700
     73 H1          -2.2010    -0.5110     2.6580 h2         1 TXE       0.096700
@<TRIPOS>BOND
     1     1     2 1   
     2     1     3 1   
     3     2    17 1   
     4     2    23 1   
     5     2    33 1   
     6     3    12 1   
     7     3    16 1   
     8     3    22 1   
     9     4     5 1   
    10     4    11 1   
    11     4    15 1   
    12     4    72 1   
    13     5     6 1   
    14     5     9 1   
    15     5    45 1   
    16     6     7 1   
    17     6    10 1   
    18     6    46 1   
    19     7     8 1   
    20     7    11 1   
    21     7    47 1   
    22     8    12 1   
    23     8    48 1   
    24     8    49 1   
    25     9    50 1   
    26    10    51 1   
    27    13    18 1   
    28    13    29 1   
    29    13    44 1   
    30    13    73 1   
    31    14    20 ar  
    32    14    36 ar  
    33    15    21 1   
    34    15    38 1   
    35    18    19 1   
    36    18    24 1   
    37    18    52 1   
    38    19    53 1   
    39    20    26 ar  
    40    20    54 1   
    41    21    27 1   
    42    21    55 1   
    43    21    56 1   
    44    24    25 1   
    45    24    28 1   
    46    24    57 1   
    47    25    58 1   
    48    26    30 ar  
    49    27    31 1   
    50    27    40 1   
    51    27    59 1   
    52    28    29 1   
    53    28    32 1   
    54    28    60 1   
    55    30    34 ar  
    56    30    44 1   
    57    31    35 1   
    58    31    61 1   
    59    31    62 1   
    60    32    33 1   
    61    32    63 1   
    62    32    64 1   
    63    34    36 ar  
    64    34    39 1   
    65    35    38 2   
    66    35    65 1   
    67    36    37 1   
    68    37    66 1   
    69    37    67 1   
    70    38    68 1   
    71    39    43 2   
    72    40    41 1   
    73    40    42 2   
    74    41    69 1   
    75    41    70 1   
    76    43    44 1   
    77    43    71 1   
@<TRIPOS>SUBSTRUCTURE
     1 TXE         1 TEMP              0 ****  ****    0 ROOT
