@<TRIPOS>MOLECULE
TXF
   62    64     1     0     0
SMALL
No Charge or Current Charge


@<TRIPOS>ATOM
      1 O29          3.1900     5.3760     0.0270 oh         1 TXF      -0.534100
      2 C26          2.7130     4.1020     0.0960 ca         1 TXF       0.141100
      3 C25          1.6940     3.6940    -0.7760 ca         1 TXF      -0.180500
      4 C24          1.1940     2.3810    -0.7130 ca         1 TXF      -0.054000
      5 C27          3.2350     3.2000     1.0360 ca         1 TXF      -0.180500
      6 C28          2.7370     1.8860     1.1010 ca         1 TXF      -0.054000
      7 C23          1.7170     1.4650     0.2220 ca         1 TXF      -0.090800
      8 C11          1.1820     0.0700     0.2920 ce         1 TXF       0.017600
      9 C12          1.9760    -1.0490     0.3480 cf         1 TXF      -0.048400
     10 C17          3.4530    -1.0450     0.2130 ca         1 TXF      -0.052800
     11 C22          4.2800    -1.6930     1.1560 ca         1 TXF      -0.098000
     12 C21          5.6780    -1.6760     1.0090 ca         1 TXF      -0.112500
     13 C20          6.2640    -1.0120    -0.0810 ca         1 TXF      -0.110000
     14 C19          5.4500    -0.3630    -1.0230 ca         1 TXF      -0.112500
     15 C18          4.0530    -0.3800    -0.8760 ca         1 TXF      -0.098000
     16 C13          1.3970    -2.4620     0.4850 c3         1 TXF      -0.036200
     17 C14          1.5970    -3.3290    -0.7790 c3         1 TXF      -0.080400
     18 C15          0.9440    -4.7210    -0.6630 c3         1 TXF       0.162600
     19 O16          1.1710    -5.4630    -1.8650 oh         1 TXF      -0.661000
     20 C8          -0.3100     0.0470     0.3440 ca         1 TXF      -0.097800
     21 C7          -0.9870     0.6680     1.4090 ca         1 TXF      -0.059000
     22 C6          -2.3920     0.6580     1.4560 ca         1 TXF      -0.179500
     23 C9          -1.0520    -0.5680    -0.6830 ca         1 TXF      -0.059000
     24 C10         -2.4570    -0.5790    -0.6370 ca         1 TXF      -0.179500
     25 C5          -3.1340     0.0360     0.4390 ca         1 TXF       0.149100
     26 O4          -4.5090     0.0590     0.5380 os         1 TXF      -0.327100
     27 C3          -5.3610    -0.5440    -0.4560 c3         1 TXF       0.165600
     28 C2          -6.8460    -0.3430    -0.0440 c3         1 TXF       0.165800
     29 N1          -7.3180     1.0680     0.0910 n3         1 TXF      -0.701600
     30 C31         -7.1940     1.8600    -1.1560 c3         1 TXF       0.150100
     31 C30         -8.6790     1.1490     0.6660 c3         1 TXF       0.150100
     32 H29          3.8920     5.4810     0.7050 ho         1 TXF       0.464000
     33 H25          1.2890     4.3940    -1.5020 ha         1 TXF       0.120000
     34 H24          0.4060     2.0740    -1.3960 ha         1 TXF       0.119000
     35 H27          4.0230     3.5070     1.7190 ha         1 TXF       0.120000
     36 H28          3.1410     1.1960     1.8380 ha         1 TXF       0.119000
     37 H22          3.8460    -2.1970     2.0160 ha         1 TXF       0.114500
     38 H21          6.3070    -2.1750     1.7430 ha         1 TXF       0.112000
     39 H20          7.3460    -0.9990    -0.1930 ha         1 TXF       0.111000
     40 H19          5.9010     0.1520    -1.8680 ha         1 TXF       0.112000
     41 H18          3.4320     0.1210    -1.6150 ha         1 TXF       0.114500
     42 H131         1.8460    -2.9810     1.3390 hc         1 TXF       0.049700
     43 H132         0.3270    -2.4340     0.7200 hc         1 TXF       0.049700
     44 H141         1.1760    -2.8060    -1.6460 hc         1 TXF       0.056700
     45 H142         2.6700    -3.4530    -0.9700 hc         1 TXF       0.056700
     46 H151         1.3730    -5.2520     0.1970 h1         1 TXF       0.014700
     47 H152        -0.1330    -4.6030    -0.4870 h1         1 TXF       0.014700
     48 H16          0.7410    -6.3390    -1.7450 ho         1 TXF       0.441000
     49 H7          -0.4240     1.1540     2.2030 ha         1 TXF       0.117500
     50 H6          -2.9090     1.1360     2.2830 ha         1 TXF       0.122500
     51 H9          -0.5380    -1.0350    -1.5190 ha         1 TXF       0.117500
     52 H10         -3.0000    -1.0640    -1.4430 ha         1 TXF       0.122500
     53 H31         -5.1600    -1.6210    -0.5280 h1         1 TXF       0.033700
     54 H32         -5.1850    -0.0990    -1.4440 h1         1 TXF       0.033700
     55 H21A        -6.9890    -0.8660     0.9110 h1         1 TXF       0.041200
     56 H22A        -7.4700    -0.8670    -0.7810 h1         1 TXF       0.041200
     57 H311        -6.1500     1.9160    -1.4880 h1         1 TXF       0.030867
     58 H312        -7.7920     1.4170    -1.9630 h1         1 TXF       0.030867
     59 H313        -7.5440     2.8890    -0.9970 h1         1 TXF       0.030867
     60 H301        -9.4170     0.6920    -0.0060 h1         1 TXF       0.030867
     61 H302        -8.7240     0.6290     1.6320 h1         1 TXF       0.030867
     62 H303        -8.9680     2.1960     0.8350 h1         1 TXF       0.030867
@<TRIPOS>BOND
     1     1     2 1   
     2     1    32 1   
     3     2     3 ar  
     4     2     5 ar  
     5     3     4 ar  
     6     3    33 1   
     7     4     7 ar  
     8     4    34 1   
     9     5     6 ar  
    10     5    35 1   
    11     6     7 ar  
    12     6    36 1   
    13     7     8 1   
    14     8     9 2   
    15     8    20 1   
    16     9    10 1   
    17     9    16 1   
    18    10    11 ar  
    19    10    15 ar  
    20    11    12 ar  
    21    11    37 1   
    22    12    13 ar  
    23    12    38 1   
    24    13    14 ar  
    25    13    39 1   
    26    14    15 ar  
    27    14    40 1   
    28    15    41 1   
    29    16    17 1   
    30    16    42 1   
    31    16    43 1   
    32    17    18 1   
    33    17    44 1   
    34    17    45 1   
    35    18    19 1   
    36    18    46 1   
    37    18    47 1   
    38    19    48 1   
    39    20    21 ar  
    40    20    23 ar  
    41    21    22 ar  
    42    21    49 1   
    43    22    25 ar  
    44    22    50 1   
    45    23    24 ar  
    46    23    51 1   
    47    24    25 ar  
    48    24    52 1   
    49    25    26 1   
    50    26    27 1   
    51    27    28 1   
    52    27    53 1   
    53    27    54 1   
    54    28    29 1   
    55    28    55 1   
    56    28    56 1   
    57    29    30 1   
    58    29    31 1   
    59    30    57 1   
    60    30    58 1   
    61    30    59 1   
    62    31    60 1   
    63    31    61 1   
    64    31    62 1   
@<TRIPOS>SUBSTRUCTURE
     1 TXF         1 TEMP              0 ****  ****    0 ROOT
