@<TRIPOS>MOLECULE
TXF
   62    64     1     0     0
SMALL
abcg2


@<TRIPOS>ATOM
      1 O29          3.3360     5.2990     0.2790 oh         1 TXF      -0.534100
      2 C26          2.8440     4.0450     0.3260 ca         1 TXF       0.141100
      3 C25          1.7970     3.7210    -0.5340 ca         1 TXF      -0.180500
      4 C24          1.2590     2.4460    -0.5170 ca         1 TXF      -0.054000
      5 C27          3.3310     3.0760     1.2000 ca         1 TXF      -0.180500
      6 C28          2.7870     1.8020     1.1970 ca         1 TXF      -0.054000
      7 C23          1.7510     1.4530     0.3320 ca         1 TXF      -0.090800
      8 C11          1.1520     0.0970     0.3270 ce         1 TXF       0.017600
      9 C12          1.8940    -1.0290     0.3200 cf         1 TXF      -0.048400
     10 C17          3.3650    -0.9930     0.1220 ca         1 TXF      -0.052800
     11 C22          4.2280    -1.6190     1.0210 ca         1 TXF      -0.098000
     12 C21          5.6010    -1.6000     0.8210 ca         1 TXF      -0.112500
     13 C20          6.1360    -0.9700    -0.2950 ca         1 TXF      -0.110000
     14 C19          5.2850    -0.3600    -1.2080 ca         1 TXF      -0.112500
     15 C18          3.9140    -0.3720    -1.0010 ca         1 TXF      -0.098000
     16 C13          1.3200    -2.4110     0.4800 c3         1 TXF      -0.036200
     17 C14          1.4980    -3.2780    -0.7660 c3         1 TXF      -0.080400
     18 C15          0.8650    -4.6430    -0.5820 c3         1 TXF       0.162600
     19 O16          1.0650    -5.4070    -1.7520 oh         1 TXF      -0.661000
     20 C8          -0.3310     0.0770     0.3560 ca         1 TXF      -0.097800
     21 C7          -1.0280     0.7750     1.3470 ca         1 TXF      -0.059000
     22 C6          -2.4080     0.7790     1.3900 ca         1 TXF      -0.179500
     23 C9          -1.0800    -0.5900    -0.6060 ca         1 TXF      -0.059000
     24 C10         -2.4700    -0.5940    -0.5830 ca         1 TXF      -0.179500
     25 C5          -3.1460     0.0900     0.4230 ca         1 TXF       0.149100
     26 O4          -4.4850     0.1530     0.5390 os         1 TXF      -0.327100
     27 C3          -5.2860    -0.5530    -0.3910 c3         1 TXF       0.165600
     28 C2          -6.7390    -0.3580    -0.0190 c3         1 TXF       0.165800
     29 N1          -7.1800     1.0210    -0.0520 n3         1 TXF      -0.701600
     30 C31         -7.2190     1.5640    -1.3930 c3         1 TXF       0.150100
     31 C30         -8.4640     1.1690     0.5990 c3         1 TXF       0.150100
     32 H29          4.0510     5.4030     0.9170 ho         1 TXF       0.464000
     33 H25          1.4050     4.4690    -1.2120 ha         1 TXF       0.120000
     34 H24          0.4410     2.2190    -1.1900 ha         1 TXF       0.119000
     35 H27          4.1330     3.3140     1.8890 ha         1 TXF       0.120000
     36 H28          3.1800     1.0690     1.8900 ha         1 TXF       0.119000
     37 H22          3.8290    -2.1110     1.9000 ha         1 TXF       0.114500
     38 H21          6.2540    -2.0800     1.5400 ha         1 TXF       0.112000
     39 H20          7.2070    -0.9590    -0.4550 ha         1 TXF       0.111000
     40 H19          5.6900     0.1240    -2.0870 ha         1 TXF       0.112000
     41 H18          3.2600     0.1060    -1.7190 ha         1 TXF       0.114500
     42 H131         1.8230    -2.9030     1.3210 hc         1 TXF       0.049700
     43 H132         0.2640    -2.3620     0.7480 hc         1 TXF       0.049700
     44 H141         1.0490    -2.7770    -1.6290 hc         1 TXF       0.056700
     45 H142         2.5620    -3.3940    -0.9880 hc         1 TXF       0.056700
     46 H151         1.3080    -5.1310     0.2970 h1         1 TXF       0.014700
     47 H152        -0.2050    -4.5170    -0.3640 h1         1 TXF       0.014700
     48 H16          0.6190    -6.2510    -1.6360 ho         1 TXF       0.441000
     49 H7          -0.4770     1.3180     2.1060 ha         1 TXF       0.117500
     50 H6          -2.9280     1.3140     2.1750 ha         1 TXF       0.122500
     51 H9          -0.5760    -1.1110    -1.4110 ha         1 TXF       0.117500
     52 H10         -2.9990    -1.1280    -1.3610 ha         1 TXF       0.122500
     53 H31         -5.0610    -1.6250    -0.3630 h1         1 TXF       0.033700
     54 H32         -5.0840    -0.2090    -1.4110 h1         1 TXF       0.033700
     55 H21A        -6.8910    -0.7420     0.9930 h1         1 TXF       0.041200
     56 H22A        -7.3350    -1.0040    -0.6880 h1         1 TXF       0.041200
     57 H311        -6.2290     1.5610    -1.8500 h1         1 TXF       0.030867
     58 H312        -7.9000     1.0150    -2.0630 h1         1 TXF       0.030867
     59 H313        -7.5530     2.6020    -1.3580 h1         1 TXF       0.030867
     60 H301        -9.2750     0.6150     0.1000 h1         1 TXF       0.030867
     61 H302        -8.4060     0.8160     1.6300 h1         1 TXF       0.030867
     62 H303        -8.7500     2.2210     0.6220 h1         1 TXF       0.030867
@<TRIPOS>BOND
     1     1     2 1   
     2     1    32 1   
     3     2     3 ar  
     4     2     5 ar  
     5     3     4 ar  
     6     3    33 1   
     7     4     7 ar  
     8     4    34 1   
     9     5     6 ar  
    10     5    35 1   
    11     6     7 ar  
    12     6    36 1   
    13     7     8 1   
    14     8     9 2   
    15     8    20 1   
    16     9    10 1   
    17     9    16 1   
    18    10    11 ar  
    19    10    15 ar  
    20    11    12 ar  
    21    11    37 1   
    22    12    13 ar  
    23    12    38 1   
    24    13    14 ar  
    25    13    39 1   
    26    14    15 ar  
    27    14    40 1   
    28    15    41 1   
    29    16    17 1   
    30    16    42 1   
    31    16    43 1   
    32    17    18 1   
    33    17    44 1   
    34    17    45 1   
    35    18    19 1   
    36    18    46 1   
    37    18    47 1   
    38    19    48 1   
    39    20    21 ar  
    40    20    23 ar  
    41    21    22 ar  
    42    21    49 1   
    43    22    25 ar  
    44    22    50 1   
    45    23    24 ar  
    46    23    51 1   
    47    24    25 ar  
    48    24    52 1   
    49    25    26 1   
    50    26    27 1   
    51    27    28 1   
    52    27    53 1   
    53    27    54 1   
    54    28    29 1   
    55    28    55 1   
    56    28    56 1   
    57    29    30 1   
    58    29    31 1   
    59    30    57 1   
    60    30    58 1   
    61    30    59 1   
    62    31    60 1   
    63    31    61 1   
    64    31    62 1   
@<TRIPOS>SUBSTRUCTURE
     1 TXF         1 TEMP              0 ****  ****    0 ROOT
