@<TRIPOS>MOLECULE
TXG
   89    93     1     0     0
SMALL
bcc


@<TRIPOS>ATOM
      1 O01         -1.9500    -2.3280    -1.8750 o          1 TXG      -0.610100
      2 C02         -2.5990    -2.3010    -0.8380 c          1 TXG       0.645100
      3 C03         -3.7950    -1.3360    -0.7540 c3         1 TXG       0.047700
      4 C04         -4.4820    -1.1580    -2.1100 c3         1 TXG      -0.032100
      5 C05         -5.6100    -0.1710    -2.0060 ca         1 TXG      -0.081300
      6 C06         -5.4030     1.1820    -2.2590 ca         1 TXG      -0.118500
      7 C07         -6.4350     2.1000    -2.1150 ca         1 TXG      -0.127500
      8 C08         -7.6950     1.6740    -1.7150 ca         1 TXG      -0.125000
      9 C09         -7.9150     0.3260    -1.4640 ca         1 TXG      -0.127500
     10 C10         -6.8790    -0.5860    -1.6080 ca         1 TXG      -0.118500
     11 N11         -3.2090    -0.0930    -0.2970 ns         1 TXG      -0.574900
     12 C12         -3.3900     0.4460     0.9240 c          1 TXG       0.653100
     13 C13         -2.3820     1.5430     1.2980 c3         1 TXG       0.036700
     14 C14         -2.5950     2.8480     0.5170 c3         1 TXG      -0.032100
     15 C15         -1.6370     3.9190     0.9610 ca         1 TXG      -0.083300
     16 C16         -1.8200     4.5650     2.1820 ca         1 TXG      -0.122500
     17 C17         -0.9250     5.5330     2.6160 ca         1 TXG      -0.130000
     18 C18          0.1700     5.8720     1.8300 ca         1 TXG      -0.126000
     19 C19          0.3570     5.2390     0.6090 ca         1 TXG      -0.130000
     20 C20         -0.5390     4.2680     0.1800 ca         1 TXG      -0.122500
     21 N21         -1.0240     1.0180     1.2590 ns         1 TXG      -0.553900
     22 C22         -0.3030     0.7460     0.1630 c          1 TXG       0.642100
     23 C23          0.9370    -0.1160     0.3900 c3         1 TXG       0.036700
     24 C24          2.1220     0.3460    -0.4450 c3         1 TXG      -0.074400
     25 C25          3.3970    -0.4250    -0.1300 c3         1 TXG      -0.074400
     26 C26          4.6030     0.1110    -0.8910 c3         1 TXG      -0.077400
     27 C27          5.9050    -0.5770    -0.4970 c3         1 TXG      -0.069400
     28 C28          7.0990     0.0010    -1.2460 c3         1 TXG      -0.140400
     29 C29          8.4610    -0.5550    -0.8190 c3         1 TXG       0.384600
     30 O30          8.6920    -0.3660     0.5440 oh         1 TXG      -0.576800
     31 O31          8.5420    -1.9430    -0.9740 oh         1 TXG      -0.576800
     32 C32          9.5610     0.0910    -1.6560 cx         1 TXG      -0.005900
     33 O33         10.0130     1.3640    -1.2310 op         1 TXG      -0.403600
     34 C34         10.9150     0.2630    -1.1520 cx         1 TXG       0.077400
     35 N35          0.5140    -1.4630     0.0430 ns         1 TXG      -0.566900
     36 C36         -0.0090    -2.3240     0.9450 c          1 TXG       0.645100
     37 C37         -0.8220    -3.4630     0.3240 c6         1 TXG       0.030700
     38 C38         -0.6960    -4.7980     1.0520 c6         1 TXG      -0.065400
     39 C39         -1.4800    -4.8890     2.3530 c6         1 TXG      -0.074400
     40 C40         -2.9120    -4.4400     2.1150 c6         1 TXG      -0.089400
     41 C41         -2.9610    -3.0400     1.5240 c6         1 TXG       0.102000
     42 N42         -2.2080    -2.9720     0.2730 n          1 TXG      -0.472800
     43 O43          0.0980    -2.1700     2.1500 o          1 TXG      -0.599100
     44 O44         -0.6440     1.0510    -0.9750 o          1 TXG      -0.622100
     45 O45         -4.2550     0.0940     1.7070 o          1 TXG      -0.596100
     46 H031        -4.5450    -1.6410    -0.0300 h1         1 TXG       0.093700
     47 H041        -3.7520    -0.8290    -2.8510 hc         1 TXG       0.068200
     48 H042        -4.8550    -2.1300    -2.4390 hc         1 TXG       0.068200
     49 H061        -4.4260     1.5250    -2.5800 ha         1 TXG       0.128000
     50 H071        -6.2540     3.1480    -2.3160 ha         1 TXG       0.129500
     51 H081        -8.5010     2.3890    -1.6040 ha         1 TXG       0.130000
     52 H091        -8.8950    -0.0170    -1.1570 ha         1 TXG       0.129500
     53 H101        -7.0590    -1.6370    -1.4110 ha         1 TXG       0.128000
     54 H111        -2.4790     0.3010    -0.8800 hn         1 TXG       0.348500
     55 H131        -2.5710     1.7590     2.3490 h1         1 TXG       0.084700
     56 H142        -2.5110     2.6890    -0.5570 hc         1 TXG       0.070200
     57 H141        -3.6230     3.1640     0.7110 hc         1 TXG       0.070200
     58 H161        -2.6730     4.3120     2.8020 ha         1 TXG       0.135500
     59 H171        -1.0840     6.0250     3.5670 ha         1 TXG       0.130500
     60 H181         0.8680     6.6280     2.1660 ha         1 TXG       0.131000
     61 H191         1.2040     5.5010    -0.0130 ha         1 TXG       0.130500
     62 H201        -0.3820     3.7790    -0.7730 ha         1 TXG       0.135500
     63 H211        -0.6680     0.6830     2.1410 hn         1 TXG       0.332500
     64 H231         1.2220    -0.1150     1.4420 h1         1 TXG       0.088700
     65 H242         1.8840     0.2700    -1.5090 hc         1 TXG       0.059700
     66 H241         2.2820     1.4090    -0.2380 hc         1 TXG       0.059700
     67 H252         3.5940    -0.3650     0.9460 hc         1 TXG       0.046700
     68 H251         3.2590    -1.4860    -0.3580 hc         1 TXG       0.046700
     69 H262         4.4380     0.0010    -1.9680 hc         1 TXG       0.038200
     70 H261         4.6960     1.1870    -0.7060 hc         1 TXG       0.038200
     71 H271         6.0520    -0.4630     0.5800 hc         1 TXG       0.052200
     72 H272         5.8190    -1.6500    -0.6870 hc         1 TXG       0.052200
     73 H281         6.9750    -0.1590    -2.3230 hc         1 TXG       0.051200
     74 H282         7.1170     1.0890    -1.1150 hc         1 TXG       0.051200
     75 H301         8.7190     0.5810     0.7250 ho         1 TXG       0.424500
     76 H311         8.1070    -2.2000    -1.7930 ho         1 TXG       0.424500
     77 H321         9.4200    -0.0060    -2.7330 h1         1 TXG       0.086700
     78 H341        11.1720    -0.0670    -0.1510 h1         1 TXG       0.085700
     79 H342        11.7430     0.2830    -1.8550 h1         1 TXG       0.085700
     80 H351         0.3180    -1.6300    -0.9340 hn         1 TXG       0.336500
     81 H371        -0.4900    -3.6210    -0.7010 h1         1 TXG       0.090700
     82 H382        -1.0610    -5.5690     0.3680 hc         1 TXG       0.053200
     83 H381         0.3640    -5.0050     1.2110 hc         1 TXG       0.053200
     84 H392        -1.4600    -5.9180     2.7160 hc         1 TXG       0.056200
     85 H391        -1.0210    -4.2700     3.1240 hc         1 TXG       0.056200
     86 H401        -3.4150    -5.1330     1.4330 hc         1 TXG       0.050200
     87 H402        -3.4820    -4.4370     3.0450 hc         1 TXG       0.050200
     88 H412        -3.9960    -2.7740     1.3430 h1         1 TXG       0.060200
     89 H411        -2.5660    -2.3200     2.2450 h1         1 TXG       0.060200
@<TRIPOS>BOND
     1     1     2 2   
     2     2     3 1   
     3     2    42 1   
     4     3     4 1   
     5     3    11 1   
     6     3    46 1   
     7     4     5 1   
     8     4    47 1   
     9     4    48 1   
    10     5     6 ar  
    11     5    10 ar  
    12     6     7 ar  
    13     6    49 1   
    14     7     8 ar  
    15     7    50 1   
    16     8     9 ar  
    17     8    51 1   
    18     9    10 ar  
    19     9    52 1   
    20    10    53 1   
    21    11    12 1   
    22    11    54 1   
    23    12    13 1   
    24    12    45 2   
    25    13    14 1   
    26    13    21 1   
    27    13    55 1   
    28    14    15 1   
    29    14    56 1   
    30    14    57 1   
    31    15    16 ar  
    32    15    20 ar  
    33    16    17 ar  
    34    16    58 1   
    35    17    18 ar  
    36    17    59 1   
    37    18    19 ar  
    38    18    60 1   
    39    19    20 ar  
    40    19    61 1   
    41    20    62 1   
    42    21    22 1   
    43    21    63 1   
    44    22    23 1   
    45    22    44 2   
    46    23    24 1   
    47    23    35 1   
    48    23    64 1   
    49    24    25 1   
    50    24    65 1   
    51    24    66 1   
    52    25    26 1   
    53    25    67 1   
    54    25    68 1   
    55    26    27 1   
    56    26    69 1   
    57    26    70 1   
    58    27    28 1   
    59    27    71 1   
    60    27    72 1   
    61    28    29 1   
    62    28    73 1   
    63    28    74 1   
    64    29    30 1   
    65    29    31 1   
    66    29    32 1   
    67    30    75 1   
    68    31    76 1   
    69    32    33 1   
    70    32    34 1   
    71    32    77 1   
    72    33    34 1   
    73    34    78 1   
    74    34    79 1   
    75    35    36 1   
    76    35    80 1   
    77    36    37 1   
    78    36    43 2   
    79    37    38 1   
    80    37    42 1   
    81    37    81 1   
    82    38    39 1   
    83    38    82 1   
    84    38    83 1   
    85    39    40 1   
    86    39    84 1   
    87    39    85 1   
    88    40    41 1   
    89    40    86 1   
    90    40    87 1   
    91    41    42 1   
    92    41    88 1   
    93    41    89 1   
@<TRIPOS>SUBSTRUCTURE
     1 TXG         1 TEMP              0 ****  ****    0 ROOT
