@<TRIPOS>MOLECULE
TXG
   89    93     1     0     0
SMALL
No Charge or Current Charge


@<TRIPOS>ATOM
      1 O01         -2.5990    -2.3740    -2.3420 o          1 TXG      -0.610100
      2 C02         -3.0150    -2.4750    -1.1930 c          1 TXG       0.578100
      3 C03         -4.0290    -1.4380    -0.6160 c3         1 TXG       0.047700
      4 C04         -5.1640    -1.1260    -1.6300 c3         1 TXG      -0.032100
      5 C05         -6.1570    -0.0770    -1.1410 ca         1 TXG      -0.081300
      6 C06         -6.0240     1.2690    -1.5390 ca         1 TXG      -0.100500
      7 C07         -6.9350     2.2360    -1.0820 ca         1 TXG      -0.109500
      8 C08         -7.9880     1.8640    -0.2280 ca         1 TXG      -0.107000
      9 C09         -8.1270     0.5230     0.1680 ca         1 TXG      -0.109500
     10 C10         -7.2140    -0.4450    -0.2860 ca         1 TXG      -0.100500
     11 N11         -3.2550    -0.2200    -0.2750 ns         1 TXG      -0.507900
     12 C12         -3.5100     0.6620     0.7540 c          1 TXG       0.586100
     13 C13         -2.4550     1.7990     0.9440 c3         1 TXG       0.036700
     14 C14         -2.6440     2.9450    -0.0830 c3         1 TXG      -0.032100
     15 C15         -1.6130     4.0570     0.0800 ca         1 TXG      -0.083300
     16 C16         -1.7040     4.9530     1.1640 ca         1 TXG      -0.104500
     17 C17         -0.7480     5.9720     1.3240 ca         1 TXG      -0.112000
     18 C18          0.3040     6.1010     0.4020 ca         1 TXG      -0.108000
     19 C19          0.4000     5.2110    -0.6810 ca         1 TXG      -0.112000
     20 C20         -0.5560     4.1930    -0.8420 ca         1 TXG      -0.104500
     21 N21         -1.0630     1.2650     1.0120 ns         1 TXG      -0.486900
     22 C22         -0.3500     0.6820    -0.0190 c          1 TXG       0.575100
     23 C23          0.9200    -0.1130     0.4180 c3         1 TXG       0.036700
     24 C24          2.2030     0.4350    -0.2510 c3         1 TXG      -0.074400
     25 C25          3.5020    -0.2390     0.2490 c3         1 TXG      -0.074400
     26 C26          4.7730     0.3480    -0.4030 c3         1 TXG      -0.077400
     27 C27          6.0730    -0.3200     0.0970 c3         1 TXG      -0.069400
     28 C28          7.3460     0.2780    -0.5650 c3         1 TXG      -0.140400
     29 C29          8.7080    -0.2930    -0.0890 c3         1 TXG       0.431000
     30 O30          8.8410    -0.1220     1.2930 oh         1 TXG      -0.699000
     31 O31          8.7410    -1.6850    -0.2790 oh         1 TXG      -0.699000
     32 C32          9.9040     0.4100    -0.7580 cx         1 TXG       0.017300
     33 O33         11.1530     0.3850    -0.0100 op         1 TXG      -0.450000
     34 C34         11.1100    -0.3450    -1.2580 cx         1 TXG       0.100600
     35 N35          0.6870    -1.5450     0.1090 ns         1 TXG      -0.499900
     36 C36         -0.4140    -2.2160     0.6020 c          1 TXG       0.578100
     37 C37         -0.9260    -3.4250    -0.2320 c6         1 TXG       0.030700
     38 C38         -0.3240    -4.7640     0.2660 c6         1 TXG      -0.065400
     39 C39         -1.0230    -5.2380     1.5590 c6         1 TXG      -0.074400
     40 C40         -2.5460    -5.3480     1.3240 c6         1 TXG      -0.089400
     41 C41         -3.1580    -4.0150     0.8230 c6         1 TXG       0.102000
     42 N42         -2.4260    -3.4300    -0.3360 n          1 TXG      -0.405800
     43 O43         -1.0610    -1.7420     1.5260 o          1 TXG      -0.599100
     44 O44         -0.7420     0.7120    -1.1790 o          1 TXG      -0.622100
     45 O45         -4.4510     0.5090     1.5200 o          1 TXG      -0.596100
     46 H031        -4.4760    -1.8450     0.2990 h1         1 TXG       0.093700
     47 H041        -4.7190    -0.7940    -2.5770 hc         1 TXG       0.068200
     48 H042        -5.6940    -2.0580    -1.8610 hc         1 TXG       0.068200
     49 H061        -5.2110     1.5670    -2.1970 ha         1 TXG       0.110000
     50 H071        -6.8260     3.2740    -1.3890 ha         1 TXG       0.111500
     51 H081        -8.6930     2.6130     0.1250 ha         1 TXG       0.112000
     52 H091        -8.9410     0.2340     0.8300 ha         1 TXG       0.111500
     53 H101        -7.3270    -1.4800     0.0290 ha         1 TXG       0.110000
     54 H111        -2.4280    -0.0080    -0.8300 hn         1 TXG       0.348500
     55 H131        -2.6680     2.2240     1.9330 h1         1 TXG       0.084700
     56 H142        -2.6110     2.5400    -1.1010 hc         1 TXG       0.070200
     57 H141        -3.6540     3.3570     0.0350 hc         1 TXG       0.070200
     58 H161        -2.5140     4.8590     1.8840 ha         1 TXG       0.117500
     59 H171        -0.8230     6.6600     2.1630 ha         1 TXG       0.112500
     60 H181         1.0440     6.8890     0.5260 ha         1 TXG       0.113000
     61 H191         1.2140     5.3090    -1.3950 ha         1 TXG       0.112500
     62 H201        -0.4710     3.5070    -1.6820 ha         1 TXG       0.117500
     63 H211        -0.6590     1.1560     1.9350 hn         1 TXG       0.332500
     64 H231         1.0250    -0.0070     1.5060 h1         1 TXG       0.088700
     65 H242         2.1240     0.3170    -1.3400 hc         1 TXG       0.059700
     66 H241         2.2650     1.5140    -0.0560 hc         1 TXG       0.059700
     67 H252         3.5700    -0.1240     1.3380 hc         1 TXG       0.046700
     68 H251         3.4590    -1.3160     0.0430 hc         1 TXG       0.046700
     69 H262         4.7050     0.2350    -1.4920 hc         1 TXG       0.038200
     70 H261         4.8190     1.4250    -0.1950 hc         1 TXG       0.038200
     71 H271         6.1350    -0.2040     1.1860 hc         1 TXG       0.052200
     72 H272         6.0150    -1.3960    -0.1110 hc         1 TXG       0.052200
     73 H281         7.2740     0.1450    -1.6510 hc         1 TXG       0.051200
     74 H282         7.3480     1.3620    -0.3900 hc         1 TXG       0.051200
     75 H301         9.8140     0.0050     1.3850 ho         1 TXG       0.523500
     76 H311         7.8830    -2.0000     0.0710 ho         1 TXG       0.523500
     77 H321         9.6690     1.3670    -1.2240 h1         1 TXG       0.086700
     78 H341        11.1510    -1.4310    -1.1630 h1         1 TXG       0.085700
     79 H342        11.6990     0.0820    -2.0690 h1         1 TXG       0.085700
     80 H351         1.1570    -1.9500    -0.6940 hn         1 TXG       0.336500
     81 H371        -0.5200    -3.2630    -1.2400 h1         1 TXG       0.090700
     82 H382        -0.4480    -5.5280    -0.5140 hc         1 TXG       0.053200
     83 H381         0.7570    -4.6610     0.4310 hc         1 TXG       0.053200
     84 H392        -0.6190    -6.2120     1.8680 hc         1 TXG       0.056200
     85 H391        -0.8190    -4.5380     2.3810 hc         1 TXG       0.056200
     86 H401        -2.7440    -6.1350     0.5830 hc         1 TXG       0.050200
     87 H402        -3.0480    -5.6610     2.2490 hc         1 TXG       0.050200
     88 H412        -4.2060    -4.1890     0.5420 h1         1 TXG       0.060200
     89 H411        -3.1590    -3.2900     1.6490 h1         1 TXG       0.060200
@<TRIPOS>BOND
     1     1     2 2   
     2     2     3 1   
     3     2    42 1   
     4     3     4 1   
     5     3    11 1   
     6     3    46 1   
     7     4     5 1   
     8     4    47 1   
     9     4    48 1   
    10     5     6 ar  
    11     5    10 ar  
    12     6     7 ar  
    13     6    49 1   
    14     7     8 ar  
    15     7    50 1   
    16     8     9 ar  
    17     8    51 1   
    18     9    10 ar  
    19     9    52 1   
    20    10    53 1   
    21    11    12 1   
    22    11    54 1   
    23    12    13 1   
    24    12    45 2   
    25    13    14 1   
    26    13    21 1   
    27    13    55 1   
    28    14    15 1   
    29    14    56 1   
    30    14    57 1   
    31    15    16 ar  
    32    15    20 ar  
    33    16    17 ar  
    34    16    58 1   
    35    17    18 ar  
    36    17    59 1   
    37    18    19 ar  
    38    18    60 1   
    39    19    20 ar  
    40    19    61 1   
    41    20    62 1   
    42    21    22 1   
    43    21    63 1   
    44    22    23 1   
    45    22    44 2   
    46    23    24 1   
    47    23    35 1   
    48    23    64 1   
    49    24    25 1   
    50    24    65 1   
    51    24    66 1   
    52    25    26 1   
    53    25    67 1   
    54    25    68 1   
    55    26    27 1   
    56    26    69 1   
    57    26    70 1   
    58    27    28 1   
    59    27    71 1   
    60    27    72 1   
    61    28    29 1   
    62    28    73 1   
    63    28    74 1   
    64    29    30 1   
    65    29    31 1   
    66    29    32 1   
    67    30    75 1   
    68    31    76 1   
    69    32    33 1   
    70    32    34 1   
    71    32    77 1   
    72    33    34 1   
    73    34    78 1   
    74    34    79 1   
    75    35    36 1   
    76    35    80 1   
    77    36    37 1   
    78    36    43 2   
    79    37    38 1   
    80    37    42 1   
    81    37    81 1   
    82    38    39 1   
    83    38    82 1   
    84    38    83 1   
    85    39    40 1   
    86    39    84 1   
    87    39    85 1   
    88    40    41 1   
    89    40    86 1   
    90    40    87 1   
    91    41    42 1   
    92    41    88 1   
    93    41    89 1   
@<TRIPOS>SUBSTRUCTURE
     1 TXG         1 TEMP              0 ****  ****    0 ROOT
