@<TRIPOS>MOLECULE
TXH
   47    48     1     0     0
SMALL
No Charge or Current Charge


@<TRIPOS>ATOM
      1 N1          14.3980   -20.7130    -0.4780 ns         1 TXH      -0.381500
      2 C7          19.9730   -26.2880     1.1680 ca         1 TXH      -0.125000
      3 C8          20.4060   -26.5830    -0.1440 ca         1 TXH      -0.090000
      4 N2          18.5030   -24.7460     2.5010 na         1 TXH      -0.228700
      5 C9          19.9280   -25.8270    -1.2430 ca         1 TXH      -0.133000
      6 O1          14.6160   -21.8910    -2.4230 o          1 TXH      -0.565100
      7 C1          14.8130   -21.8160    -1.2150 c          1 TXH       0.575100
      8 C5          17.6450   -23.6640     2.2070 cc         1 TXH      -0.145100
      9 C6          19.0690   -25.2310     1.3360 ca         1 TXH      -0.044200
     10 N3          15.5800   -24.1880    -1.1770 ns         1 TXH      -0.481900
     11 C4          17.7090   -23.5140     0.8260 cd         1 TXH      -0.150400
     12 C3          16.9540   -22.4770     0.0270 c3         1 TXH      -0.003200
     13 O3          15.6780   -26.3440    -1.6490 os         1 TXH      -0.477100
     14 C2          15.5310   -22.9290    -0.3990 c3         1 TXH       0.062700
     15 N           13.7950   -19.5500    -1.0540 ns         1 TXH      -0.381500
     16 C           14.4610   -18.6780    -1.8950 c          1 TXH       0.611900
     17 O           13.8870   -17.7470    -2.4460 o          1 TXH      -0.581100
     18 C10         19.0160   -24.7690    -1.0400 ca         1 TXH      -0.068000
     19 C11         18.6120   -24.5020     0.2760 ca         1 TXH      -0.087800
     20 C12         15.4460   -25.4400    -0.6500 c          1 TXH       0.650100
     21 C13         15.6770   -27.7730    -1.4200 c3         1 TXH       0.220000
     22 C14         14.2660   -28.2280    -0.9680 c3         1 TXH      -0.108433
     23 C15         16.0110   -28.3810    -2.8000 c3         1 TXH      -0.108433
     24 C16         16.7880   -28.1380    -0.4010 c3         1 TXH      -0.108433
     25 O2          15.1560   -25.6790     0.5110 o          1 TXH      -0.560000
     26 H1          14.6310   -20.6720     0.5130 hn         1 TXH       0.341500
     27 H2          20.3320   -26.8640     2.0180 ha         1 TXH       0.114000
     28 H3          21.1070   -27.3970    -0.3120 ha         1 TXH       0.113000
     29 H4          18.6800   -25.1180     3.4290 hn         1 TXH       0.353000
     30 H5          20.2640   -26.0640    -2.2500 ha         1 TXH       0.114000
     31 H6          17.0860   -23.1210     2.9630 h4         1 TXH       0.211000
     32 H7          15.7830   -24.1460    -2.1670 hn         1 TXH       0.338500
     33 H8          17.5260   -22.2110    -0.8700 hc         1 TXH       0.060200
     34 H9          16.8770   -21.5550     0.6160 hc         1 TXH       0.060200
     35 H10         14.9320   -23.0980     0.5050 h1         1 TXH       0.075700
     36 H11         12.7850   -19.4550    -0.9820 hn         1 TXH       0.334500
     37 H12         15.5380   -18.9070    -2.0080 h5         1 TXH       0.018200
     38 H13         18.6410   -24.1840    -1.8760 ha         1 TXH       0.112000
     39 H14         14.0490   -27.9320     0.0640 hc         1 TXH       0.051478
     40 H15         13.4930   -27.8040    -1.6200 hc         1 TXH       0.051478
     41 H16         14.1840   -29.3210    -1.0140 hc         1 TXH       0.051478
     42 H17         16.9890   -28.0310    -3.1530 hc         1 TXH       0.051478
     43 H18         16.0420   -29.4760    -2.7470 hc         1 TXH       0.051478
     44 H19         15.2570   -28.0970    -3.5440 hc         1 TXH       0.051478
     45 H20         16.5380   -27.8150     0.6150 hc         1 TXH       0.051478
     46 H21         16.9360   -29.2240    -0.3690 hc         1 TXH       0.051478
     47 H22         17.7400   -27.6760    -0.6840 hc         1 TXH       0.051478
@<TRIPOS>BOND
     1     1     7 1   
     2     1    15 1   
     3     1    26 1   
     4     2     3 ar  
     5     2     9 ar  
     6     2    27 1   
     7     3     5 ar  
     8     3    28 1   
     9     4     8 1   
    10     4     9 1   
    11     4    29 1   
    12     5    18 ar  
    13     5    30 1   
    14     6     7 2   
    15     7    14 1   
    16     8    11 2   
    17     8    31 1   
    18     9    19 ar  
    19    10    14 1   
    20    10    20 1   
    21    10    32 1   
    22    11    12 1   
    23    11    19 1   
    24    12    14 1   
    25    12    33 1   
    26    12    34 1   
    27    13    20 1   
    28    13    21 1   
    29    14    35 1   
    30    15    16 1   
    31    15    36 1   
    32    16    17 2   
    33    16    37 1   
    34    18    19 ar  
    35    18    38 1   
    36    20    25 2   
    37    21    22 1   
    38    21    23 1   
    39    21    24 1   
    40    22    39 1   
    41    22    40 1   
    42    22    41 1   
    43    23    42 1   
    44    23    43 1   
    45    23    44 1   
    46    24    45 1   
    47    24    46 1   
    48    24    47 1   
@<TRIPOS>SUBSTRUCTURE
     1 TXH         1 TEMP              0 ****  ****    0 ROOT
