@<TRIPOS>MOLECULE
TXH
   47    48     1     0     0
SMALL
abcg2


@<TRIPOS>ATOM
      1 N1          14.2620   -21.6380    -0.2230 ns         1 TXH      -0.381500
      2 C7          21.3070   -25.3640     1.0560 ca         1 TXH      -0.125000
      3 C8          21.5850   -25.8730    -0.2030 ca         1 TXH      -0.090000
      4 N2          19.7530   -23.8010     2.2660 na         1 TXH      -0.228700
      5 C9          20.8310   -25.4880    -1.3280 ca         1 TXH      -0.133000
      6 O1          14.9030   -22.4830    -2.2320 o          1 TXH      -0.565100
      7 C1          15.0180   -22.4430    -1.0190 c          1 TXH       0.575100
      8 C5          18.6980   -23.0060     1.8800 cc         1 TXH      -0.145100
      9 C6          20.2510   -24.4600     1.1690 ca         1 TXH      -0.044200
     10 N3          16.2440   -24.5610    -0.8230 ns         1 TXH      -0.481900
     11 C4          18.4840   -23.1330     0.5300 cd         1 TXH      -0.150400
     12 C3          17.4060   -22.4680    -0.2650 c3         1 TXH      -0.003200
     13 O3          15.6120   -26.6050    -1.3960 os         1 TXH      -0.477100
     14 C2          16.0740   -23.2470    -0.2520 c3         1 TXH       0.062700
     15 N           13.2990   -20.8060    -0.7450 ns         1 TXH      -0.381500
     16 C           13.6140   -19.5670    -1.1900 c          1 TXH       0.611900
     17 O           12.8190   -18.8160    -1.7260 o          1 TXH      -0.581100
     18 C10         19.7820   -24.5900    -1.2130 ca         1 TXH      -0.068000
     19 C11         19.4710   -24.0620     0.0480 ca         1 TXH      -0.087800
     20 C12         15.2750   -25.5030    -0.7070 c          1 TXH       0.650100
     21 C13         14.7520   -27.8070    -1.4180 c3         1 TXH       0.220000
     22 C14         13.4090   -27.4760    -2.0580 c3         1 TXH      -0.108433
     23 C15         15.5450   -28.7650    -2.2980 c3         1 TXH      -0.108433
     24 C16         14.6080   -28.3700    -0.0090 c3         1 TXH      -0.108433
     25 O2          14.2580   -25.3450    -0.0490 o          1 TXH      -0.560000
     26 H1          14.3320   -21.6810     0.7830 hn         1 TXH       0.341500
     27 H2          21.8870   -25.6560     1.9220 ha         1 TXH       0.114000
     28 H3          22.3980   -26.5770    -0.3250 ha         1 TXH       0.113000
     29 H4          20.1090   -23.8750     3.2040 hn         1 TXH       0.353000
     30 H5          21.0780   -25.9020    -2.2970 ha         1 TXH       0.114000
     31 H6          18.1740   -22.4010     2.6030 h4         1 TXH       0.211000
     32 H7          16.9830   -24.7210    -1.4870 hn         1 TXH       0.338500
     33 H8          17.7210   -22.3410    -1.3040 hc         1 TXH       0.060200
     34 H9          17.2040   -21.4710     0.1310 hc         1 TXH       0.060200
     35 H10         15.7500   -23.3620     0.7840 h1         1 TXH       0.075700
     36 H11         12.3830   -21.1990    -0.9290 hn         1 TXH       0.334500
     37 H12         14.6660   -19.3080    -0.9990 h5         1 TXH       0.018200
     38 H13         19.2180   -24.2980    -2.0910 ha         1 TXH       0.112000
     39 H14         12.8280   -26.7990    -1.4370 hc         1 TXH       0.051478
     40 H15         13.5610   -27.0190    -3.0380 hc         1 TXH       0.051478
     41 H16         12.8440   -28.3990    -2.1950 hc         1 TXH       0.051478
     42 H17         16.5230   -28.9670    -1.8610 hc         1 TXH       0.051478
     43 H18         15.0030   -29.7060    -2.3920 hc         1 TXH       0.051478
     44 H19         15.6850   -28.3430    -3.2950 hc         1 TXH       0.051478
     45 H20         14.0300   -27.7050     0.6290 hc         1 TXH       0.051478
     46 H21         14.1000   -29.3340    -0.0610 hc         1 TXH       0.051478
     47 H22         15.5920   -28.5260     0.4380 hc         1 TXH       0.051478
@<TRIPOS>BOND
     1     1     7 1   
     2     1    15 1   
     3     1    26 1   
     4     2     3 ar  
     5     2     9 ar  
     6     2    27 1   
     7     3     5 ar  
     8     3    28 1   
     9     4     8 1   
    10     4     9 1   
    11     4    29 1   
    12     5    18 ar  
    13     5    30 1   
    14     6     7 2   
    15     7    14 1   
    16     8    11 2   
    17     8    31 1   
    18     9    19 ar  
    19    10    14 1   
    20    10    20 1   
    21    10    32 1   
    22    11    12 1   
    23    11    19 1   
    24    12    14 1   
    25    12    33 1   
    26    12    34 1   
    27    13    20 1   
    28    13    21 1   
    29    14    35 1   
    30    15    16 1   
    31    15    36 1   
    32    16    17 2   
    33    16    37 1   
    34    18    19 ar  
    35    18    38 1   
    36    20    25 2   
    37    21    22 1   
    38    21    23 1   
    39    21    24 1   
    40    22    39 1   
    41    22    40 1   
    42    22    41 1   
    43    23    42 1   
    44    23    43 1   
    45    23    44 1   
    46    24    45 1   
    47    24    46 1   
    48    24    47 1   
@<TRIPOS>SUBSTRUCTURE
     1 TXH         1 TEMP              0 ****  ****    0 ROOT
