@<TRIPOS>MOLECULE
TXI
   34    33     1     0     0
SMALL
No Charge or Current Charge


@<TRIPOS>ATOM
      1 N1           0.2050     0.3440     1.1610 ns         1 TXI      -0.507900
      2 O1          -3.7300    -1.5570     0.0760 o          1 TXI      -0.472100
      3 C1          -4.1490     0.7390    -0.6040 c3         1 TXI      -0.001400
      4 O2           0.9370    -1.8100     1.0930 o          1 TXI      -0.599100
      5 C2           3.1780    -1.3050    -1.1330 c3         1 TXI      -0.087100
      6 C3          -3.2670    -0.4640    -0.2270 c          1 TXI       0.566100
      7 O3           2.7500     1.2250     1.7480 oh         1 TXI      -0.668000
      8 C4          -1.7550    -0.2240    -0.2500 c3         1 TXI      -0.205400
      9 O4           5.4100     0.5840    -1.5720 oh         1 TXI      -0.659000
     10 C5           2.4770     1.1250    -1.2470 c3         1 TXI      -0.087100
     11 C6          -1.2320     0.0750     1.1670 c3         1 TXI       0.117000
     12 C7           2.6580    -0.0490     1.0450 c3         1 TXI       0.089300
     13 C8           1.1960    -0.6130     1.0750 c          1 TXI       0.576100
     14 C9           3.2650     0.0730    -0.4080 c3         1 TXI      -0.063000
     15 C10          4.7690     0.4970    -0.2900 c3         1 TXI       0.164600
     16 Cl1         -5.9400     0.4760    -0.3530 cl         1 TXI      -0.224000
     17 H1           0.5320     1.3030     1.2170 hn         1 TXI       0.320500
     18 H2          -3.8470     1.5990     0.0040 h1         1 TXI       0.081700
     19 H3          -3.9830     0.9760    -1.6620 h1         1 TXI       0.081700
     20 H4           3.6460    -1.2680    -2.1240 hc         1 TXI       0.045700
     21 H5           3.6830    -2.0870    -0.5530 hc         1 TXI       0.045700
     22 H6           2.1380    -1.6140    -1.2900 hc         1 TXI       0.045700
     23 H7           3.6840     1.3500     2.0270 ho         1 TXI       0.448000
     24 H8          -1.2510    -1.1180    -0.6360 hc         1 TXI       0.066700
     25 H9          -1.5300     0.6470    -0.8790 hc         1 TXI       0.066700
     26 H10          6.3410     0.8540    -1.4100 ho         1 TXI       0.445000
     27 H11          1.4190     0.8540    -1.3350 hc         1 TXI       0.045700
     28 H12          2.5360     2.1220    -0.7940 hc         1 TXI       0.045700
     29 H13          2.8780     1.1990    -2.2650 hc         1 TXI       0.045700
     30 H14         -1.4370    -0.7770     1.8310 h1         1 TXI       0.067200
     31 H15         -1.7490     0.9540     1.5780 h1         1 TXI       0.067200
     32 H16          3.2480    -0.8020     1.5860 h1         1 TXI       0.096700
     33 H17          5.2980    -0.2340     0.3380 h1         1 TXI       0.021200
     34 H18          4.8380     1.4700     0.2140 h1         1 TXI       0.021200
@<TRIPOS>BOND
     1     1    11 1   
     2     1    13 1   
     3     1    17 1   
     4     2     6 2   
     5     3     6 1   
     6     3    16 1   
     7     3    18 1   
     8     3    19 1   
     9     4    13 2   
    10     5    14 1   
    11     5    20 1   
    12     5    21 1   
    13     5    22 1   
    14     6     8 1   
    15     7    12 1   
    16     7    23 1   
    17     8    11 1   
    18     8    24 1   
    19     8    25 1   
    20     9    15 1   
    21     9    26 1   
    22    10    14 1   
    23    10    27 1   
    24    10    28 1   
    25    10    29 1   
    26    11    30 1   
    27    11    31 1   
    28    12    13 1   
    29    12    14 1   
    30    12    32 1   
    31    14    15 1   
    32    15    33 1   
    33    15    34 1   
@<TRIPOS>SUBSTRUCTURE
     1 TXI         1 TEMP              0 ****  ****    0 ROOT
