@<TRIPOS>MOLECULE
TXI
   34    33     1     0     0
SMALL
abcg2


@<TRIPOS>ATOM
      1 N1           0.1250     0.1240     0.3640 ns         1 TXI      -0.507900
      2 O1          -3.9150    -1.0610     0.1000 o          1 TXI      -0.472100
      3 C1          -4.7000     1.1950     0.0810 c3         1 TXI      -0.001400
      4 O2           1.1720    -1.8360     0.6950 o          1 TXI      -0.599100
      5 C2           4.0230    -1.6350    -0.2250 c3         1 TXI      -0.087100
      6 C3          -3.6450     0.1110     0.1320 c          1 TXI       0.566100
      7 O3           2.2880     1.5460     0.8870 oh         1 TXI      -0.668000
      8 C4          -2.2380     0.6360     0.2280 c3         1 TXI      -0.205400
      9 O4           5.8220     0.4210    -0.9750 oh         1 TXI      -0.659000
     10 C5           3.0110     0.0910    -1.7270 c3         1 TXI      -0.087100
     11 C6          -1.1910    -0.4630     0.2410 c3         1 TXI       0.117000
     12 C7           2.5270     0.1600     0.7630 c3         1 TXI       0.089300
     13 C8           1.2140    -0.6160     0.5970 c          1 TXI       0.576100
     14 C9           3.5780    -0.1740    -0.3300 c3         1 TXI      -0.063000
     15 C10          4.7960     0.7270    -0.0600 c3         1 TXI       0.164600
     16 CL1         -6.3450     0.5320     0.0440 cl         1 TXI      -0.224000
     17 H1           0.2150     1.1270     0.3790 hn         1 TXI       0.320500
     18 H2          -4.6040     1.8460     0.9500 h1         1 TXI       0.081700
     19 H3          -4.5520     1.8100    -0.8070 h1         1 TXI       0.081700
     20 H4           4.8430    -1.8270    -0.9150 hc         1 TXI       0.045700
     21 H5           4.3730    -1.8710     0.7830 hc         1 TXI       0.045700
     22 H6           3.2210    -2.3260    -0.4710 hc         1 TXI       0.045700
     23 H7           2.3250     1.9650     0.0200 ho         1 TXI       0.448000
     24 H8          -2.0710     1.3290    -0.6040 hc         1 TXI       0.066700
     25 H9          -2.1670     1.2470     1.1350 hc         1 TXI       0.066700
     26 H10          6.5460     1.0330    -0.8190 ho         1 TXI       0.445000
     27 H11          2.1660    -0.5640    -1.9460 hc         1 TXI       0.045700
     28 H12          2.6760     1.1230    -1.8650 hc         1 TXI       0.045700
     29 H13          3.7670    -0.0930    -2.4890 hc         1 TXI       0.045700
     30 H14         -1.2540    -1.0560    -0.6750 h1         1 TXI       0.067200
     31 H15         -1.3690    -1.1430     1.0750 h1         1 TXI       0.067200
     32 H16          2.9380    -0.1610     1.7280 h1         1 TXI       0.096700
     33 H17          5.1250     0.5630     0.9770 h1         1 TXI       0.021200
     34 H18          4.5160     1.7830    -0.1440 h1         1 TXI       0.021200
@<TRIPOS>BOND
     1     1    11 1   
     2     1    13 1   
     3     1    17 1   
     4     2     6 2   
     5     3     6 1   
     6     3    16 1   
     7     3    18 1   
     8     3    19 1   
     9     4    13 2   
    10     5    14 1   
    11     5    20 1   
    12     5    21 1   
    13     5    22 1   
    14     6     8 1   
    15     7    12 1   
    16     7    23 1   
    17     8    11 1   
    18     8    24 1   
    19     8    25 1   
    20     9    15 1   
    21     9    26 1   
    22    10    14 1   
    23    10    27 1   
    24    10    28 1   
    25    10    29 1   
    26    11    30 1   
    27    11    31 1   
    28    12    13 1   
    29    12    14 1   
    30    12    32 1   
    31    14    15 1   
    32    15    33 1   
    33    15    34 1   
@<TRIPOS>SUBSTRUCTURE
     1 TXI         1 TEMP              0 ****  ****    0 ROOT
