@<TRIPOS>MOLECULE
TXK
   75    80     1     0     0
SMALL
No Charge or Current Charge


@<TRIPOS>ATOM
      1 N1          -2.0860    -3.1370    27.5140 n          1 TXK      -0.374800
      2 C4          -1.3340     1.0610    27.8080 ca         1 TXK      -0.205000
      3 C5          -1.5450    -0.3140    27.5910 ca         1 TXK      -0.023300
      4 C6          -2.7690    -0.7590    27.0380 ca         1 TXK      -0.121300
      5 C7          -0.4520    -1.3130    27.9740 c6         1 TXK      -0.012100
      6 C8          -0.6780    -2.7210    27.3950 cx         1 TXK       0.049400
      7 C10         -2.5640    -4.2820    28.2070 c          1 TXK       0.619700
      8 C13         -0.8850    -7.1460    30.1050 ca         1 TXK      -0.117500
      9 C15         -0.0680    -5.0530    31.0280 ca         1 TXK      -0.117500
     10 C17          0.0660    -3.0410    26.1100 cx         1 TXK      -0.118900
     11 C20         -3.9010    -3.6470    24.8190 ca         1 TXK      -0.094500
     12 C21         -3.9670    -3.9660    23.4520 ca         1 TXK      -0.114000
     13 C22         -3.2250    -3.2280    22.5120 ca         1 TXK      -0.074300
     14 C24         -2.3520    -1.8430    24.3220 ca         1 TXK      -0.094500
     15 C26         -4.4440    -2.8120    20.3190 c3         1 TXK      -0.068400
     16 C28         -5.6530    -2.2600    18.0790 c5         1 TXK      -0.077400
     17 C1          -3.7640     0.1830    26.7080 ca         1 TXK      -0.063000
     18 C11         -1.6710    -5.0210    29.1800 ca         1 TXK      -0.131600
     19 C12         -1.6900    -6.4330    29.1990 ca         1 TXK      -0.076000
     20 C14         -0.0690    -6.4570    31.0150 ca         1 TXK      -0.096000
     21 C16         -0.8710    -4.3390    30.1220 ca         1 TXK      -0.076000
     22 C18          0.4960    -3.6890    27.3920 cx         1 TXK      -0.118900
     23 C19         -3.0910    -2.5860    25.2690 ca         1 TXK      -0.098300
     24 C2          -3.5430     1.5530    26.9250 ca         1 TXK      -0.140000
     25 C23         -2.4190    -2.1640    22.9550 ca         1 TXK      -0.114000
     26 C25         -3.3010    -3.5710    21.0310 c3         1 TXK      -0.031100
     27 C27         -4.5580    -3.0990    18.8000 c5         1 TXK      -0.063700
     28 C29         -5.9640    -3.1580    16.8640 c5         1 TXK       0.156800
     29 C3          -2.3300     1.9900    27.4750 ca         1 TXK       0.138100
     30 C30         -4.9260    -4.5730    18.4160 c5         1 TXK       0.159800
     31 C32         -7.7880    -5.5380    15.9730 c3         1 TXK      -0.077400
     32 C33         -8.1290    -6.8270    15.1990 c3         1 TXK      -0.090100
     33 C9          -3.0340    -2.2540    26.7730 c6         1 TXK       0.208300
     34 N2          -6.1390    -4.4460    17.5660 n3         1 TXK      -0.721600
     35 O1          -3.7210    -4.6620    28.0600 o          1 TXK      -0.604100
     36 O2          -2.1230     3.3200    27.6850 oh         1 TXK      -0.537100
     37 H1          -0.3940     1.3990    28.2380 ha         1 TXK       0.111000
     38 H2           0.5270    -0.9290    27.6540 hc         1 TXK       0.057200
     39 H3          -0.4010    -1.3740    29.0680 hc         1 TXK       0.057200
     40 H4          -0.8970    -8.2340    30.1010 ha         1 TXK       0.116000
     41 H5           0.5490    -4.5170    31.7460 ha         1 TXK       0.116000
     42 H6          -0.4250    -3.6760    25.3770 hc         1 TXK       0.082450
     43 H7           0.7120    -2.2780    25.6830 hc         1 TXK       0.082450
     44 H8          -4.4840    -4.2290    25.5290 ha         1 TXK       0.123500
     45 H9          -4.5990    -4.7880    23.1230 ha         1 TXK       0.112500
     46 H10         -1.7170    -1.0200    24.6390 ha         1 TXK       0.123500
     47 H11         -4.2910    -1.7360    20.4720 hc         1 TXK       0.049700
     48 H12         -5.3920    -3.0600    20.8120 hc         1 TXK       0.049700
     49 H13         -5.2980    -1.2660    17.7860 hc         1 TXK       0.048700
     50 H14         -6.5430    -2.1220    18.7040 hc         1 TXK       0.048700
     51 H15         -4.7070    -0.1470    26.2760 ha         1 TXK       0.123000
     52 H16         -2.3200    -6.9780    28.4990 ha         1 TXK       0.121500
     53 H17          0.5520    -7.0100    31.7180 ha         1 TXK       0.114000
     54 H18         -0.8840    -3.2550    30.1710 ha         1 TXK       0.121500
     55 H19          0.3160    -4.7570    27.4730 hc         1 TXK       0.082450
     56 H20          1.4290    -3.3570    27.8410 hc         1 TXK       0.082450
     57 H21         -4.3140     2.2750    26.6670 ha         1 TXK       0.132000
     58 H22         -1.8420    -1.5820    22.2400 ha         1 TXK       0.112500
     59 H23         -3.4440    -4.6510    20.9060 hc         1 TXK       0.044200
     60 H24         -2.3500    -3.3310    20.5400 hc         1 TXK       0.044200
     61 H25         -3.5790    -2.8560    18.3680 hc         1 TXK       0.046700
     62 H26         -5.1300    -3.1870    16.1470 h1         1 TXK       0.036200
     63 H27         -6.8710    -2.8310    16.3370 h1         1 TXK       0.036200
     64 H28         -5.1290    -5.1970    19.2980 h1         1 TXK       0.035200
     65 H29         -4.0970    -5.0380    17.8640 h1         1 TXK       0.035200
     66 H30         -6.4820    -6.5190    17.3770 h1         1 TXK       0.027200
     67 H31         -5.6390    -5.7920    16.0050 h1         1 TXK       0.027200
     68 H32         -7.7560    -4.7020    15.2650 hc         1 TXK       0.045200
     69 H33         -8.5930    -5.3270    16.6880 hc         1 TXK       0.045200
     70 H34         -9.0860    -6.7170    14.6760 hc         1 TXK       0.032367
     71 H35         -7.3540    -7.0480    14.4550 hc         1 TXK       0.032367
     72 H36         -8.2070    -7.6810    15.8830 hc         1 TXK       0.032367
     73 H37         -4.0440    -2.4350    27.1690 h1         1 TXK       0.098700
     74 H39         -1.2290     3.4340    28.0720 ho         1 TXK       0.462000
     75 C31         -6.4460    -5.6300    16.7340 c3         1 TXK       0.169800
@<TRIPOS>BOND
     1     1     6 1   
     2     1     7 1   
     3     1    33 1   
     4     2     3 ar  
     5     2    29 ar  
     6     2    37 1   
     7     3     4 ar  
     8     3     5 1   
     9     4    17 ar  
    10     4    33 1   
    11     5     6 1   
    12     5    38 1   
    13     5    39 1   
    14     6    10 1   
    15     6    22 1   
    16     7    18 1   
    17     7    35 2   
    18     8    19 ar  
    19     8    20 ar  
    20     8    40 1   
    21     9    20 ar  
    22     9    21 ar  
    23     9    41 1   
    24    10    22 1   
    25    10    42 1   
    26    10    43 1   
    27    11    12 ar  
    28    11    23 ar  
    29    11    44 1   
    30    12    13 ar  
    31    12    45 1   
    32    13    25 ar  
    33    13    26 1   
    34    14    23 ar  
    35    14    25 ar  
    36    14    46 1   
    37    15    26 1   
    38    15    27 1   
    39    15    47 1   
    40    15    48 1   
    41    16    27 1   
    42    16    28 1   
    43    16    49 1   
    44    16    50 1   
    45    17    24 ar  
    46    17    51 1   
    47    18    19 ar  
    48    18    21 ar  
    49    19    52 1   
    50    20    53 1   
    51    21    54 1   
    52    22    55 1   
    53    22    56 1   
    54    23    33 1   
    55    24    29 ar  
    56    24    57 1   
    57    25    58 1   
    58    26    59 1   
    59    26    60 1   
    60    27    30 1   
    61    27    61 1   
    62    28    34 1   
    63    28    62 1   
    64    28    63 1   
    65    29    36 1   
    66    30    34 1   
    67    30    64 1   
    68    30    65 1   
    69    31    32 1   
    70    31    68 1   
    71    31    69 1   
    72    31    75 1   
    73    32    70 1   
    74    32    71 1   
    75    32    72 1   
    76    33    73 1   
    77    34    75 1   
    78    36    74 1   
    79    66    75 1   
    80    67    75 1   
@<TRIPOS>SUBSTRUCTURE
     1 TXK         1 TEMP              0 ****  ****    0 ROOT
