@<TRIPOS>MOLECULE
TXK
   75    80     1     0     0
SMALL
abcg2


@<TRIPOS>ATOM
      1 N1          -2.2920    -3.0690    27.1770 n          1 TXK      -0.374800
      2 C4          -0.9330     0.7680    28.1490 ca         1 TXK      -0.205000
      3 C5          -1.3360    -0.4890    27.6950 ca         1 TXK      -0.023300
      4 C6          -2.5950    -0.6400    27.1120 ca         1 TXK      -0.121300
      5 C7          -0.4150    -1.6700    27.8830 c6         1 TXK      -0.012100
      6 C8          -0.8630    -2.8680    27.0790 cx         1 TXK       0.049400
      7 C10         -2.9380    -4.0640    27.8360 c          1 TXK       0.619700
      8 C13         -1.6140    -7.3280    29.1820 ca         1 TXK      -0.117500
      9 C15         -0.6990    -5.5460    30.5190 ca         1 TXK      -0.117500
     10 C17         -0.2090    -3.0890    25.7330 cx         1 TXK      -0.118900
     11 C20         -3.6900    -3.2220    24.4920 ca         1 TXK      -0.094500
     12 C21         -3.6930    -3.4010    23.1170 ca         1 TXK      -0.114000
     13 C22         -3.1320    -2.4440    22.2640 ca         1 TXK      -0.074300
     14 C24         -2.5710    -1.1250    24.2230 ca         1 TXK      -0.094500
     15 C26         -4.5530    -2.4220    20.1690 c3         1 TXK      -0.068400
     16 C28         -5.9770    -2.2520    18.0500 c5         1 TXK      -0.077400
     17 C1          -3.4290     0.4750    27.0070 ca         1 TXK      -0.063000
     18 C11         -2.1470    -5.0320    28.6600 ca         1 TXK      -0.131600
     19 C12         -2.2880    -6.3960    28.4030 ca         1 TXK      -0.076000
     20 C14         -0.8180    -6.9040    30.2430 ca         1 TXK      -0.096000
     21 C16         -1.3550    -4.6120    29.7260 ca         1 TXK      -0.076000
     22 C18          0.0800    -4.0120    26.8810 cx         1 TXK      -0.118900
     23 C19         -3.1190    -2.0840    25.0660 ca         1 TXK      -0.098300
     24 C2          -3.0320     1.7230    27.4540 ca         1 TXK      -0.140000
     25 C23         -2.5790    -1.3040    22.8420 ca         1 TXK      -0.114000
     26 C25         -3.1590    -2.6400    20.7710 c3         1 TXK      -0.031100
     27 C27         -4.6140    -2.6730    18.6620 c5         1 TXK      -0.063700
     28 C29         -6.4330    -3.4660    17.2410 c5         1 TXK       0.156800
     29 C3          -1.7690     1.8700    28.0270 ca         1 TXK       0.138100
     30 C30         -4.4930    -4.1630    18.2830 c5         1 TXK       0.159800
     31 C32         -7.3300    -6.4220    17.1420 c3         1 TXK      -0.077400
     32 C33         -7.3390    -7.7980    16.4810 c3         1 TXK      -0.090100
     33 C9          -3.0850    -1.9730    26.5870 c6         1 TXK       0.208300
     34 N2          -5.8600    -4.5900    17.9810 n3         1 TXK      -0.721600
     35 O1          -4.1660    -4.1980    27.7820 o          1 TXK      -0.604100
     36 O2          -1.4050     3.1170    28.4540 oh         1 TXK      -0.537100
     37 H1           0.0460     0.8850    28.6030 ha         1 TXK       0.111000
     38 H2           0.6040    -1.3970    27.6040 hc         1 TXK       0.057200
     39 H3          -0.3860    -1.9270    28.9470 hc         1 TXK       0.057200
     40 H4          -1.7140    -8.3840    28.9650 ha         1 TXK       0.116000
     41 H5          -0.0920    -5.2120    31.3510 ha         1 TXK       0.116000
     42 H6          -0.8240    -3.4790    24.9370 hc         1 TXK       0.082450
     43 H7           0.5380    -2.3690    25.4270 hc         1 TXK       0.082450
     44 H8          -4.1170    -3.9830    25.1340 ha         1 TXK       0.123500
     45 H9          -4.1320    -4.2980    22.6960 ha         1 TXK       0.112500
     46 H10         -2.1170    -0.2360    24.6410 ha         1 TXK       0.123500
     47 H11         -4.8680    -1.3940    20.3760 hc         1 TXK       0.049700
     48 H12         -5.2750    -3.0760    20.6680 hc         1 TXK       0.049700
     49 H13         -5.8990    -1.3540    17.4380 hc         1 TXK       0.048700
     50 H14         -6.6940    -2.0480    18.8490 hc         1 TXK       0.048700
     51 H15         -4.4100     0.3600    26.5610 ha         1 TXK       0.123000
     52 H16         -2.9150    -6.7210    27.5830 ha         1 TXK       0.121500
     53 H17         -0.2970    -7.6300    30.8550 ha         1 TXK       0.114000
     54 H18         -1.2580    -3.5580    29.9460 ha         1 TXK       0.121500
     55 H19         -0.3270    -5.0100    26.8250 hc         1 TXK       0.082450
     56 H20          1.0310    -3.9430    27.3930 hc         1 TXK       0.082450
     57 H21         -3.6850     2.5820    27.3680 ha         1 TXK       0.132000
     58 H22         -2.1350    -0.5470    22.2040 ha         1 TXK       0.112500
     59 H23         -2.8190    -3.6520    20.5350 hc         1 TXK       0.044200
     60 H24         -2.4540    -1.9500    20.2990 hc         1 TXK       0.044200
     61 H25         -3.8040    -2.1140    18.1890 hc         1 TXK       0.046700
     62 H26         -6.0260    -3.4250    16.2140 h1         1 TXK       0.036200
     63 H27         -7.5170    -3.5470    17.1680 h1         1 TXK       0.036200
     64 H28         -4.0710    -4.7790    19.0790 h1         1 TXK       0.035200
     65 H29         -3.8450    -4.2780    17.3970 h1         1 TXK       0.035200
     66 H30         -5.3200    -6.5830    17.8760 h1         1 TXK       0.027200
     67 H31         -5.4410    -5.7990    16.2990 h1         1 TXK       0.027200
     68 H32         -7.9340    -5.7300    16.5500 hc         1 TXK       0.045200
     69 H33         -7.7940    -6.4780    18.1310 hc         1 TXK       0.045200
     70 H34         -8.3570    -8.1820    16.3840 hc         1 TXK       0.032367
     71 H35         -6.9010    -7.7560    15.4810 hc         1 TXK       0.032367
     72 H36         -6.7630    -8.5200    17.0660 hc         1 TXK       0.032367
     73 H37         -4.1010    -2.1280    26.9460 h1         1 TXK       0.098700
     74 H39         -0.5140     3.0890    28.8290 ho         1 TXK       0.462000
     75 C31         -5.9160    -5.8720    17.2960 c3         1 TXK       0.169800
@<TRIPOS>BOND
     1     1     6 1   
     2     1     7 1   
     3     1    33 1   
     4     2     3 ar  
     5     2    29 ar  
     6     2    37 1   
     7     3     4 ar  
     8     3     5 1   
     9     4    17 ar  
    10     4    33 1   
    11     5     6 1   
    12     5    38 1   
    13     5    39 1   
    14     6    10 1   
    15     6    22 1   
    16     7    18 1   
    17     7    35 2   
    18     8    19 ar  
    19     8    20 ar  
    20     8    40 1   
    21     9    20 ar  
    22     9    21 ar  
    23     9    41 1   
    24    10    22 1   
    25    10    42 1   
    26    10    43 1   
    27    11    12 ar  
    28    11    23 ar  
    29    11    44 1   
    30    12    13 ar  
    31    12    45 1   
    32    13    25 ar  
    33    13    26 1   
    34    14    23 ar  
    35    14    25 ar  
    36    14    46 1   
    37    15    26 1   
    38    15    27 1   
    39    15    47 1   
    40    15    48 1   
    41    16    27 1   
    42    16    28 1   
    43    16    49 1   
    44    16    50 1   
    45    17    24 ar  
    46    17    51 1   
    47    18    19 ar  
    48    18    21 ar  
    49    19    52 1   
    50    20    53 1   
    51    21    54 1   
    52    22    55 1   
    53    22    56 1   
    54    23    33 1   
    55    24    29 ar  
    56    24    57 1   
    57    25    58 1   
    58    26    59 1   
    59    26    60 1   
    60    27    30 1   
    61    27    61 1   
    62    28    34 1   
    63    28    62 1   
    64    28    63 1   
    65    29    36 1   
    66    30    34 1   
    67    30    64 1   
    68    30    65 1   
    69    31    32 1   
    70    31    68 1   
    71    31    69 1   
    72    31    75 1   
    73    32    70 1   
    74    32    71 1   
    75    32    72 1   
    76    33    73 1   
    77    34    75 1   
    78    36    74 1   
    79    66    75 1   
    80    67    75 1   
@<TRIPOS>SUBSTRUCTURE
     1 TXK         1 TEMP              0 ****  ****    0 ROOT
