@<TRIPOS>MOLECULE
TXL
  111   116     1     0     0
SMALL
No Charge or Current Charge


@<TRIPOS>ATOM
      1 C1         -79.7820    27.0190   -23.3050 c6         1 TXL       0.193000
      2 C2         -80.2120    26.3870   -24.7310 c3         1 TXL       0.189300
      3 C3         -79.0680    25.9270   -25.7960 c6         1 TXL      -0.043700
      4 C4         -79.3050    26.5200   -27.2520 cy         1 TXL       0.145000
      5 C5         -78.7210    25.7200   -28.5490 cy         1 TXL       0.148300
      6 C6         -77.9410    24.4000   -28.3150 c6         1 TXL      -0.084400
      7 C7         -77.4720    24.1610   -26.8670 c6         1 TXL       0.178300
      8 C8         -78.6640    24.3250   -25.8230 c6         1 TXL      -0.147000
      9 C9         -78.0760    23.7610   -24.4600 c          1 TXL       0.570100
     10 C10        -77.0070    24.5910   -23.6590 c3         1 TXL       0.117500
     11 C11        -77.4870    25.9470   -23.1360 c2         1 TXL      -0.149400
     12 C12        -76.8080    27.0910   -23.4210 c2         1 TXL      -0.103400
     13 C13        -77.5440    28.4730   -23.2550 c6         1 TXL       0.205500
     14 C14        -79.0910    28.4160   -23.5360 c6         1 TXL      -0.117400
     15 C15        -78.8810    26.0510   -22.4310 c6         1 TXL      -0.021800
     16 C16        -79.6320    24.6940   -22.1280 c3         1 TXL      -0.093600
     17 C17        -78.6280    26.5540   -20.9510 c3         1 TXL      -0.093600
     18 C18        -75.4120    27.1930   -24.0320 c3         1 TXL      -0.058900
     19 C19        -79.8770    23.3530   -26.2140 c3         1 TXL      -0.093100
     20 C20        -80.6990    26.1370   -27.9630 cy         1 TXL       0.148600
     21 O1         -80.9870    27.2760   -22.5580 oh         1 TXL      -0.652000
     22 O2         -81.1500    27.3410   -25.3450 os         1 TXL      -0.445100
     23 O3         -79.0140    27.9730   -27.2910 os         1 TXL      -0.433100
     24 O4         -80.0760    25.4670   -29.1630 oq         1 TXL      -0.447000
     25 O5         -76.8840    22.8630   -26.7780 oh         1 TXL      -0.650000
     26 O6         -78.4540    22.6730   -24.0230 o          1 TXL      -0.468100
     27 O7         -76.4040    23.8680   -22.5630 oh         1 TXL      -0.623000
     28 O8         -76.9900    29.5820   -24.0330 os         1 TXL      -0.454100
     29 C21        -76.1370    30.4870   -23.4400 c          1 TXL       0.602100
     30 O9         -75.7140    30.3740   -22.2950 o          1 TXL      -0.446000
     31 C22        -75.8040    31.6920   -24.3710 c3         1 TXL       0.108300
     32 O10        -74.8720    32.6310   -23.7630 oh         1 TXL      -0.632000
     33 C23        -77.0880    32.4380   -24.8530 c3         1 TXL       0.145000
     34 C24        -76.7760    33.7640   -25.5570 ca         1 TXL      -0.122300
     35 C25        -76.7140    34.9800   -24.8400 ca         1 TXL      -0.102500
     36 C26        -76.4200    36.1840   -25.5030 ca         1 TXL      -0.106000
     37 C27        -76.1870    36.1860   -26.8880 ca         1 TXL      -0.102000
     38 C28        -76.2470    34.9830   -27.6090 ca         1 TXL      -0.106000
     39 C29        -76.5400    33.7780   -26.9470 ca         1 TXL      -0.102500
     40 N1         -78.1080    32.6030   -23.8080 ns         1 TXL      -0.506900
     41 C30        -79.4110    32.2100   -23.9290 c          1 TXL       0.652100
     42 O11        -79.8770    31.6520   -24.9080 o          1 TXL      -0.552000
     43 O12        -80.0850    32.6100   -22.8090 os         1 TXL      -0.475100
     44 C31        -81.5180    32.4510   -22.6650 c3         1 TXL       0.224000
     45 C32        -81.8370    33.0910   -21.2960 c3         1 TXL      -0.109767
     46 C33        -82.2470    33.2290   -23.7920 c3         1 TXL      -0.109767
     47 C34        -81.8840    30.9450   -22.6390 c3         1 TXL      -0.109767
     48 C35        -82.4980    27.2490   -25.1080 c          1 TXL       0.619700
     49 O13        -83.0450    26.2530   -24.6510 o          1 TXL      -0.478000
     50 C36        -83.2660    28.4420   -25.6270 ca         1 TXL      -0.147600
     51 C37        -82.6000    29.5490   -26.2060 ca         1 TXL      -0.054000
     52 C38        -83.3290    30.6590   -26.6650 ca         1 TXL      -0.129500
     53 C39        -84.7280    30.6810   -26.5520 ca         1 TXL      -0.087000
     54 C40        -85.3990    29.5890   -25.9800 ca         1 TXL      -0.129500
     55 C41        -84.6740    28.4760   -25.5190 ca         1 TXL      -0.054000
     56 C42        -77.7010    28.4620   -27.3580 c          1 TXL       0.603100
     57 O14        -76.7040    27.7580   -27.3640 o          1 TXL      -0.503000
     58 C43        -77.6850    29.9510   -27.6360 c3         1 TXL      -0.164100
     59 H2         -80.7640    25.4680   -24.5180 h1         1 TXL       0.091700
     60 H3         -78.1680    26.4560   -25.4830 hc         1 TXL       0.078700
     61 H5         -78.1480    26.3860   -29.2050 h1         1 TXL       0.071700
     62 H61        -78.5470    23.5510   -28.6580 hc         1 TXL       0.072700
     63 H62        -77.0620    24.4020   -28.9740 hc         1 TXL       0.072700
     64 H7         -76.7070    24.9180   -26.6350 h1         1 TXL       0.044700
     65 H10        -76.2350    24.7650   -24.4130 h1         1 TXL       0.041700
     66 H13        -77.4400    28.7600   -22.2050 h1         1 TXL       0.084700
     67 H141       -79.2630    28.7280   -24.5720 hc         1 TXL       0.073200
     68 H142       -79.5690    29.1920   -22.9260 hc         1 TXL       0.073200
     69 H161       -78.9760    23.9580   -21.6490 hc         1 TXL       0.046700
     70 H162       -80.4740    24.8410   -21.4400 hc         1 TXL       0.046700
     71 H163       -80.0930    24.2270   -22.9990 hc         1 TXL       0.046700
     72 H171       -77.8990    25.9080   -20.4460 hc         1 TXL       0.046700
     73 H172       -78.2520    27.5700   -20.8550 hc         1 TXL       0.046700
     74 H173       -79.5370    26.5330   -20.3380 hc         1 TXL       0.046700
     75 H181       -74.8000    27.9120   -23.4750 hc         1 TXL       0.052033
     76 H182       -74.8520    26.2530   -24.0100 hc         1 TXL       0.052033
     77 H183       -75.4530    27.5340   -25.0710 hc         1 TXL       0.052033
     78 H191       -79.5550    22.3060   -26.2800 hc         1 TXL       0.055700
     79 H192       -80.6840    23.3960   -25.4730 hc         1 TXL       0.055700
     80 H193       -80.3240    23.5780   -27.1840 hc         1 TXL       0.055700
     81 H201       -81.3350    25.4520   -27.3940 h1         1 TXL       0.071700
     82 H202       -81.2870    27.0120   -28.2610 h1         1 TXL       0.071700
     83 HO1        -80.7140    27.4870   -21.6430 ho         1 TXL       0.451000
     84 HO5        -76.1480    22.8310   -27.4280 ho         1 TXL       0.448000
     85 HO7        -75.8220    24.5010   -22.0910 ho         1 TXL       0.447000
     86 H22        -75.3360    31.2550   -25.2640 h1         1 TXL       0.066700
     87 HO0        -74.8500    33.4270   -24.3400 ho         1 TXL       0.461000
     88 H23        -77.5300    31.7830   -25.6110 h1         1 TXL       0.098700
     89 H25        -76.8890    35.0000   -23.7660 ha         1 TXL       0.114500
     90 H26        -76.3740    37.1160   -24.9440 ha         1 TXL       0.117500
     91 H27        -75.9600    37.1190   -27.4010 ha         1 TXL       0.118000
     92 H28        -76.0660    34.9830   -28.6820 ha         1 TXL       0.117500
     93 H29        -76.5820    32.8560   -27.5210 ha         1 TXL       0.114500
     94 HN1        -77.8680    33.0820   -22.9510 hn         1 TXL       0.339500
     95 H321       -82.9090    33.0220   -21.0740 hc         1 TXL       0.050922
     96 H322       -81.2900    32.5850   -20.4920 hc         1 TXL       0.050922
     97 H323       -81.5560    34.1510   -21.2860 hc         1 TXL       0.050922
     98 H331       -83.3150    33.3230   -23.5610 hc         1 TXL       0.050922
     99 H332       -81.8330    34.2380   -23.9000 hc         1 TXL       0.050922
    100 H333       -82.1720    32.7170   -24.7570 hc         1 TXL       0.050922
    101 H341       -82.9490    30.8170   -22.4090 hc         1 TXL       0.050922
    102 H342       -81.7010    30.4590   -23.6020 hc         1 TXL       0.050922
    103 H343       -81.3100    30.4200   -21.8680 hc         1 TXL       0.050922
    104 H37        -81.5150    29.5630   -26.2980 ha         1 TXL       0.138500
    105 H38        -82.8060    31.5050   -27.1050 ha         1 TXL       0.118500
    106 H39        -85.2900    31.5420   -26.9070 ha         1 TXL       0.113000
    107 H40        -86.4830    29.6050   -25.8900 ha         1 TXL       0.118500
    108 H41        -85.2120    27.6400   -25.0730 ha         1 TXL       0.138500
    109 H431       -76.6920    30.3850   -27.4800 hc         1 TXL       0.075367
    110 H432       -77.9930    30.1010   -28.6760 hc         1 TXL       0.075367
    111 H433       -78.4760    30.4420   -27.0610 hc         1 TXL       0.075367
@<TRIPOS>BOND
     1     1     2 1   
     2     1    14 1   
     3     1    15 1   
     4     1    21 1   
     5     2     3 1   
     6     2    22 1   
     7     2    59 1   
     8     3     4 1   
     9     3     8 1   
    10     3    60 1   
    11     4     5 1   
    12     4    20 1   
    13     4    23 1   
    14     5     6 1   
    15     5    24 1   
    16     5    61 1   
    17     6     7 1   
    18     6    62 1   
    19     6    63 1   
    20     7     8 1   
    21     7    25 1   
    22     7    64 1   
    23     8     9 1   
    24     8    19 1   
    25     9    10 1   
    26     9    26 2   
    27    10    11 1   
    28    10    27 1   
    29    10    65 1   
    30    11    12 2   
    31    11    15 1   
    32    12    13 1   
    33    12    18 1   
    34    13    14 1   
    35    13    28 1   
    36    13    66 1   
    37    14    67 1   
    38    14    68 1   
    39    15    16 1   
    40    15    17 1   
    41    16    69 1   
    42    16    70 1   
    43    16    71 1   
    44    17    72 1   
    45    17    73 1   
    46    17    74 1   
    47    18    75 1   
    48    18    76 1   
    49    18    77 1   
    50    19    78 1   
    51    19    79 1   
    52    19    80 1   
    53    20    24 1   
    54    20    81 1   
    55    20    82 1   
    56    21    83 1   
    57    22    48 1   
    58    23    56 1   
    59    25    84 1   
    60    27    85 1   
    61    28    29 1   
    62    29    30 2   
    63    29    31 1   
    64    31    32 1   
    65    31    33 1   
    66    31    86 1   
    67    32    87 1   
    68    33    34 1   
    69    33    40 1   
    70    33    88 1   
    71    34    35 ar  
    72    34    39 ar  
    73    35    36 ar  
    74    35    89 1   
    75    36    37 ar  
    76    36    90 1   
    77    37    38 ar  
    78    37    91 1   
    79    38    39 ar  
    80    38    92 1   
    81    39    93 1   
    82    40    41 1   
    83    40    94 1   
    84    41    42 2   
    85    41    43 1   
    86    43    44 1   
    87    44    45 1   
    88    44    46 1   
    89    44    47 1   
    90    45    95 1   
    91    45    96 1   
    92    45    97 1   
    93    46    98 1   
    94    46    99 1   
    95    46   100 1   
    96    47   101 1   
    97    47   102 1   
    98    47   103 1   
    99    48    49 2   
   100    48    50 1   
   101    50    51 ar  
   102    50    55 ar  
   103    51    52 ar  
   104    51   104 1   
   105    52    53 ar  
   106    52   105 1   
   107    53    54 ar  
   108    53   106 1   
   109    54    55 ar  
   110    54   107 1   
   111    55   108 1   
   112    56    57 2   
   113    56    58 1   
   114    58   109 1   
   115    58   110 1   
   116    58   111 1   
@<TRIPOS>SUBSTRUCTURE
     1 TXL         1 TEMP              0 ****  ****    0 ROOT
