@<TRIPOS>MOLECULE
TXL
  111   116     1     0     0
SMALL
abcg2


@<TRIPOS>ATOM
      1 C1         -79.6400    27.0800   -23.3600 c6         1 TXL       0.193000
      2 C2         -80.1230    26.4280   -24.7030 c3         1 TXL       0.189300
      3 C3         -79.0470    26.0290   -25.7730 c6         1 TXL      -0.043700
      4 C4         -79.4370    26.5620   -27.1770 cy         1 TXL       0.145000
      5 C5         -78.9370    25.8390   -28.4540 cy         1 TXL       0.148300
      6 C6         -78.0490    24.6160   -28.3160 c6         1 TXL      -0.084400
      7 C7         -77.5340    24.3770   -26.9060 c6         1 TXL       0.178300
      8 C8         -78.6700    24.5030   -25.8260 c6         1 TXL      -0.147000
      9 C9         -78.0000    23.8970   -24.5660 c          1 TXL       0.570100
     10 C10        -76.9420    24.6750   -23.7800 c3         1 TXL       0.117500
     11 C11        -77.4350    26.0040   -23.2850 c2         1 TXL      -0.149400
     12 C12        -76.7460    27.1290   -23.5430 c2         1 TXL      -0.103400
     13 C13        -77.4210    28.4350   -23.2090 c6         1 TXL       0.205500
     14 C14        -78.8960    28.4160   -23.6140 c6         1 TXL      -0.117400
     15 C15        -78.7650    26.0920   -22.5370 c6         1 TXL      -0.021800
     16 C16        -79.5160    24.7680   -22.3170 c3         1 TXL      -0.093600
     17 C17        -78.5290    26.5870   -21.0910 c3         1 TXL      -0.093600
     18 C18        -75.3820    27.2140   -24.1570 c3         1 TXL      -0.058900
     19 C19        -79.8520    23.5960   -26.1790 c3         1 TXL      -0.093100
     20 C20        -80.8290    26.2630   -27.7500 cy         1 TXL       0.148600
     21 O1         -80.8520    27.3250   -22.6790 oh         1 TXL      -0.652000
     22 O2         -81.0090    27.3980   -25.2690 os         1 TXL      -0.445100
     23 O3         -79.2140    27.9730   -27.2360 os         1 TXL      -0.433100
     24 O4         -80.2820    25.5290   -28.8420 oq         1 TXL      -0.447000
     25 O5         -76.9420    23.1010   -26.9130 oh         1 TXL      -0.650000
     26 O6         -78.1900    22.7410   -24.2870 o          1 TXL      -0.468100
     27 O7         -76.4720    23.8380   -22.7570 oh         1 TXL      -0.623000
     28 O8         -76.8170    29.5330   -23.9100 os         1 TXL      -0.454100
     29 C21        -76.2060    30.4840   -23.2080 c          1 TXL       0.602100
     30 O9         -75.9630    30.4270   -22.0350 o          1 TXL      -0.446000
     31 C22        -75.8640    31.6710   -24.0920 c3         1 TXL       0.108300
     32 O10        -75.2070    32.6000   -23.2850 oh         1 TXL      -0.632000
     33 C23        -77.1570    32.2410   -24.7120 c3         1 TXL       0.145000
     34 C24        -76.8450    33.4860   -25.5190 ca         1 TXL      -0.122300
     35 C25        -77.1970    34.7580   -25.0870 ca         1 TXL      -0.102500
     36 C26        -76.8710    35.8770   -25.8450 ca         1 TXL      -0.106000
     37 C27        -76.1840    35.7370   -27.0410 ca         1 TXL      -0.102000
     38 C28        -75.8260    34.4680   -27.4800 ca         1 TXL      -0.106000
     39 C29        -76.1540    33.3540   -26.7230 ca         1 TXL      -0.102500
     40 N1         -78.1380    32.4400   -23.6780 ns         1 TXL      -0.506900
     41 C30        -79.4600    32.2280   -23.9000 c          1 TXL       0.652100
     42 O11        -79.9080    31.7770   -24.9340 o          1 TXL      -0.552000
     43 O12        -80.1640    32.5690   -22.8260 os         1 TXL      -0.475100
     44 C31        -81.6110    32.4170   -22.7520 c3         1 TXL       0.224000
     45 C32        -81.9460    32.9960   -21.3840 c3         1 TXL      -0.109767
     46 C33        -82.3090    33.2260   -23.8380 c3         1 TXL      -0.109767
     47 C34        -82.0010    30.9460   -22.8010 c3         1 TXL      -0.109767
     48 C35        -82.3260    27.2730   -25.1160 c          1 TXL       0.619700
     49 O13        -82.8750    26.2950   -24.6750 o          1 TXL      -0.478000
     50 C36        -83.0550    28.4770   -25.5890 ca         1 TXL      -0.147600
     51 C37        -82.4240    29.5110   -26.2790 ca         1 TXL      -0.054000
     52 C38        -83.1540    30.6160   -26.6910 ca         1 TXL      -0.129500
     53 C39        -84.5100    30.7040   -26.4070 ca         1 TXL      -0.087000
     54 C40        -85.1420    29.6750   -25.7200 ca         1 TXL      -0.129500
     55 C41        -84.4200    28.5640   -25.3190 ca         1 TXL      -0.054000
     56 C42        -77.9830    28.4440   -27.4390 c          1 TXL       0.603100
     57 O14        -77.0000    27.7470   -27.4830 o          1 TXL      -0.503000
     58 C43        -78.0020    29.9240   -27.6520 c3         1 TXL      -0.164100
     59 H2         -80.7150    25.5490   -24.4530 h1         1 TXL       0.091700
     60 H3         -78.1210    26.5460   -25.5300 hc         1 TXL       0.078700
     61 H5         -78.5010    26.5350   -29.1740 h1         1 TXL       0.071700
     62 H61        -78.6030    23.7370   -28.6510 hc         1 TXL       0.072700
     63 H62        -77.1830    24.7060   -28.9750 hc         1 TXL       0.072700
     64 H7         -76.7870    25.1470   -26.6790 h1         1 TXL       0.044700
     65 H10        -76.1480    24.8600   -24.5190 h1         1 TXL       0.041700
     66 H13        -77.3160    28.6420   -22.1460 h1         1 TXL       0.084700
     67 H141       -78.9550    28.6930   -24.6660 hc         1 TXL       0.073200
     68 H142       -79.4080    29.2170   -23.0770 hc         1 TXL       0.073200
     69 H161       -78.8810    24.0430   -21.8120 hc         1 TXL       0.046700
     70 H162       -80.3710    24.9570   -21.6710 hc         1 TXL       0.046700
     71 H163       -79.9180    24.2920   -23.2050 hc         1 TXL       0.046700
     72 H171       -77.8480    25.8950   -20.5950 hc         1 TXL       0.046700
     73 H172       -78.1030    27.5800   -20.9880 hc         1 TXL       0.046700
     74 H173       -79.4580    26.5810   -20.5200 hc         1 TXL       0.046700
     75 H181       -74.7480    27.8840   -23.5730 hc         1 TXL       0.052033
     76 H182       -74.8690    26.2570   -24.1950 hc         1 TXL       0.052033
     77 H183       -75.4170    27.6150   -25.1720 hc         1 TXL       0.052033
     78 H191       -79.5290    22.5650   -26.2960 hc         1 TXL       0.055700
     79 H192       -80.6200    23.6050   -25.4040 hc         1 TXL       0.055700
     80 H193       -80.3300    23.8770   -27.1110 hc         1 TXL       0.055700
     81 H201       -81.4910    25.6410   -27.1440 h1         1 TXL       0.071700
     82 H202       -81.3730    27.1550   -28.0720 h1         1 TXL       0.071700
     83 HO1        -80.6890    27.9340   -21.9510 ho         1 TXL       0.451000
     84 HO5        -76.1340    23.1090   -26.3920 ho         1 TXL       0.448000
     85 HO7        -75.8020    24.3310   -22.2720 ho         1 TXL       0.447000
     86 H22        -75.2290    31.3140   -24.9150 h1         1 TXL       0.066700
     87 HO0        -74.8140    33.2710   -23.8530 ho         1 TXL       0.461000
     88 H23        -77.5470    31.4860   -25.3920 h1         1 TXL       0.098700
     89 H25        -77.7420    34.8890   -24.1610 ha         1 TXL       0.114500
     90 H26        -77.1560    36.8610   -25.4950 ha         1 TXL       0.117500
     91 H27        -75.9310    36.6080   -27.6300 ha         1 TXL       0.118000
     92 H28        -75.2930    34.3460   -28.4140 ha         1 TXL       0.117500
     93 H29        -75.8740    32.3680   -27.0780 ha         1 TXL       0.114500
     94 HN1        -77.8610    32.9150   -22.8310 hn         1 TXL       0.339500
     95 H321       -83.0190    32.9210   -21.2090 hc         1 TXL       0.050922
     96 H322       -81.4380    32.4530   -20.5860 hc         1 TXL       0.050922
     97 H323       -81.6690    34.0490   -21.3170 hc         1 TXL       0.050922
     98 H331       -83.3800    33.2460   -23.6290 hc         1 TXL       0.050922
     99 H332       -81.9560    34.2590   -23.8450 hc         1 TXL       0.050922
    100 H333       -82.1750    32.8020   -24.8300 hc         1 TXL       0.050922
    101 H341       -83.0720    30.8520   -22.6190 hc         1 TXL       0.050922
    102 H342       -81.7910    30.4920   -23.7660 hc         1 TXL       0.050922
    103 H343       -81.4830    30.3790   -22.0250 hc         1 TXL       0.050922
    104 H37        -81.3680    29.4610   -26.5050 ha         1 TXL       0.138500
    105 H38        -82.6590    31.4130   -27.2290 ha         1 TXL       0.118500
    106 H39        -85.0740    31.5720   -26.7230 ha         1 TXL       0.113000
    107 H40        -86.1990    29.7390   -25.4970 ha         1 TXL       0.118500
    108 H41        -84.9160    27.7640   -24.7850 ha         1 TXL       0.138500
    109 H431       -77.0040    30.3360   -27.5250 hc         1 TXL       0.075367
    110 H432       -78.3300    30.1300   -28.6730 hc         1 TXL       0.075367
    111 H433       -78.6980    30.4230   -26.9800 hc         1 TXL       0.075367
@<TRIPOS>BOND
     1     1     2 1   
     2     1    14 1   
     3     1    15 1   
     4     1    21 1   
     5     2     3 1   
     6     2    22 1   
     7     2    59 1   
     8     3     4 1   
     9     3     8 1   
    10     3    60 1   
    11     4     5 1   
    12     4    20 1   
    13     4    23 1   
    14     5     6 1   
    15     5    24 1   
    16     5    61 1   
    17     6     7 1   
    18     6    62 1   
    19     6    63 1   
    20     7     8 1   
    21     7    25 1   
    22     7    64 1   
    23     8     9 1   
    24     8    19 1   
    25     9    10 1   
    26     9    26 2   
    27    10    11 1   
    28    10    27 1   
    29    10    65 1   
    30    11    12 2   
    31    11    15 1   
    32    12    13 1   
    33    12    18 1   
    34    13    14 1   
    35    13    28 1   
    36    13    66 1   
    37    14    67 1   
    38    14    68 1   
    39    15    16 1   
    40    15    17 1   
    41    16    69 1   
    42    16    70 1   
    43    16    71 1   
    44    17    72 1   
    45    17    73 1   
    46    17    74 1   
    47    18    75 1   
    48    18    76 1   
    49    18    77 1   
    50    19    78 1   
    51    19    79 1   
    52    19    80 1   
    53    20    24 1   
    54    20    81 1   
    55    20    82 1   
    56    21    83 1   
    57    22    48 1   
    58    23    56 1   
    59    25    84 1   
    60    27    85 1   
    61    28    29 1   
    62    29    30 2   
    63    29    31 1   
    64    31    32 1   
    65    31    33 1   
    66    31    86 1   
    67    32    87 1   
    68    33    34 1   
    69    33    40 1   
    70    33    88 1   
    71    34    35 ar  
    72    34    39 ar  
    73    35    36 ar  
    74    35    89 1   
    75    36    37 ar  
    76    36    90 1   
    77    37    38 ar  
    78    37    91 1   
    79    38    39 ar  
    80    38    92 1   
    81    39    93 1   
    82    40    41 1   
    83    40    94 1   
    84    41    42 2   
    85    41    43 1   
    86    43    44 1   
    87    44    45 1   
    88    44    46 1   
    89    44    47 1   
    90    45    95 1   
    91    45    96 1   
    92    45    97 1   
    93    46    98 1   
    94    46    99 1   
    95    46   100 1   
    96    47   101 1   
    97    47   102 1   
    98    47   103 1   
    99    48    49 2   
   100    48    50 1   
   101    50    51 ar  
   102    50    55 ar  
   103    51    52 ar  
   104    51   104 1   
   105    52    53 ar  
   106    52   105 1   
   107    53    54 ar  
   108    53   106 1   
   109    54    55 ar  
   110    54   107 1   
   111    55   108 1   
   112    56    57 2   
   113    56    58 1   
   114    58   109 1   
   115    58   110 1   
   116    58   111 1   
@<TRIPOS>SUBSTRUCTURE
     1 TXL         1 TEMP              0 ****  ****    0 ROOT
