@<TRIPOS>MOLECULE
TXQ
   28    30     1     0     0
SMALL
abcg2


@<TRIPOS>ATOM
      1 O18          0.7340    -2.8090    -0.0650 o          1 TXQ      -0.571100
      2 C9           0.4890    -1.6010    -0.0880 c          1 TXQ       0.614300
      3 C8           1.5700    -0.6200    -0.1330 ca         1 TXQ      -0.221600
      4 C13          2.8920    -1.0600    -0.1460 ca         1 TXQ       0.184100
      5 O17          3.2410    -2.3410    -0.1210 oh         1 TXQ      -0.539100
      6 C12          3.9290    -0.1070    -0.1860 ca         1 TXQ      -0.093000
      7 C11          3.6550     1.2310    -0.2140 ca         1 TXQ      -0.103000
      8 C14          2.3260     1.7000    -0.2030 ca         1 TXQ       0.192100
      9 O16          2.1470     3.0150    -0.2330 oh         1 TXQ      -0.535100
     10 C7           1.2830     0.7710    -0.1620 ca         1 TXQ      -0.222600
     11 C10         -0.0930     1.2370    -0.1490 c          1 TXQ       0.629300
     12 O19         -0.3450     2.4560    -0.1780 o          1 TXQ      -0.623100
     13 C2          -0.8960    -1.1190    -0.0700 ca         1 TXQ      -0.125600
     14 C1          -1.1780     0.2650    -0.1010 ca         1 TXQ      -0.224600
     15 C3          -1.9350    -2.0260    -0.0220 ca         1 TXQ      -0.052000
     16 C4          -3.2530    -1.5850    -0.0020 ca         1 TXQ      -0.173000
     17 C5          -3.5500    -0.2360    -0.0300 ca         1 TXQ       0.120100
     18 O20         -4.7880     0.2610    -0.0110 oh         1 TXQ      -0.501100
     19 C6          -2.5020     0.7130    -0.0820 ca         1 TXQ       0.195100
     20 O15         -2.8610     1.9890    -0.1080 oh         1 TXQ      -0.514100
     21 HO17         2.4130    -2.8730    -0.0920 ho         1 TXQ       0.517000
     22 H12          4.9560    -0.4510    -0.1950 ha         1 TXQ       0.140000
     23 H11          4.4620     1.9510    -0.2450 ha         1 TXQ       0.140000
     24 HO16         1.1800     3.1900    -0.2220 ho         1 TXQ       0.517000
     25 H3          -1.7350    -3.0880     0.0000 ha         1 TXQ       0.142000
     26 H4          -4.0590    -2.3080     0.0370 ha         1 TXQ       0.124000
     27 HO20        -5.4400    -0.4500     0.0300 ho         1 TXQ       0.469000
     28 HO15        -2.0440     2.5310    -0.1430 ho         1 TXQ       0.514000
@<TRIPOS>BOND
     1     1     2 2   
     2     2     3 1   
     3     2    13 1   
     4     3     4 ar  
     5     3    10 ar  
     6     4     5 1   
     7     4     6 ar  
     8     5    21 1   
     9     6     7 ar  
    10     6    22 1   
    11     7     8 ar  
    12     7    23 1   
    13     8     9 1   
    14     8    10 ar  
    15     9    24 1   
    16    10    11 1   
    17    11    12 2   
    18    11    14 1   
    19    13    14 ar  
    20    13    15 ar  
    21    14    19 ar  
    22    15    16 ar  
    23    15    25 1   
    24    16    17 ar  
    25    16    26 1   
    26    17    18 1   
    27    17    19 ar  
    28    18    27 1   
    29    19    20 1   
    30    20    28 1   
@<TRIPOS>SUBSTRUCTURE
     1 TXQ         1 TEMP              0 ****  ****    0 ROOT
