@<TRIPOS>MOLECULE
TXQ
   28    30     1     0     0
SMALL
No Charge or Current Charge


@<TRIPOS>ATOM
      1 O18          0.7150    -2.8180    -0.0550 o          1 TXQ      -0.571100
      2 C9           0.4820    -1.6120    -0.0810 c          1 TXQ       0.614300
      3 C8           1.6150    -0.6080    -0.1310 ca         1 TXQ      -0.221600
      4 C13          2.9660    -1.0450    -0.1480 ca         1 TXQ       0.184100
      5 O17          3.2820    -2.3700    -0.1200 oh         1 TXQ      -0.539100
      6 C12          4.0150    -0.1190    -0.1930 ca         1 TXQ      -0.093000
      7 C11          3.7420     1.2540    -0.2230 ca         1 TXQ      -0.103000
      8 C14          2.4180     1.7090    -0.2070 ca         1 TXQ       0.192100
      9 O16          2.2020     3.0540    -0.2370 oh         1 TXQ      -0.535100
     10 C7           1.3360     0.7910    -0.1610 ca         1 TXQ      -0.222600
     11 C10         -0.0920     1.2930    -0.1440 c          1 TXQ       0.629300
     12 O19         -0.3290     2.5000    -0.1700 o          1 TXQ      -0.623100
     13 C2          -0.9390    -1.0970    -0.0650 ca         1 TXQ      -0.125600
     14 C1          -1.2240     0.2940    -0.0950 ca         1 TXQ      -0.224600
     15 C3          -2.0030    -2.0260    -0.0190 ca         1 TXQ      -0.052000
     16 C4          -3.3360    -1.5940    -0.0020 ca         1 TXQ      -0.173000
     17 C5          -3.6310    -0.2250    -0.0310 ca         1 TXQ       0.120100
     18 O20         -4.9450     0.1730    -0.0140 oh         1 TXQ      -0.501100
     19 C6          -2.5780     0.7240    -0.0780 ca         1 TXQ       0.195100
     20 O15         -2.8790     2.0600    -0.1060 oh         1 TXQ      -0.514100
     21 HO17         2.4210    -2.8620    -0.0890 ho         1 TXQ       0.517000
     22 H12          5.0440    -0.4670    -0.2060 ha         1 TXQ       0.140000
     23 H11          4.5590     1.9700    -0.2580 ha         1 TXQ       0.140000
     24 HO16         1.2160     3.1740    -0.2200 ho         1 TXQ       0.517000
     25 H3          -1.7990    -3.0960     0.0040 ha         1 TXQ       0.142000
     26 H4          -4.1350    -2.3320     0.0340 ha         1 TXQ       0.124000
     27 HO20        -5.5150    -0.6250     0.0180 ho         1 TXQ       0.469000
     28 HO15        -2.0090     2.5370    -0.1360 ho         1 TXQ       0.514000
@<TRIPOS>BOND
     1     1     2 2   
     2     2     3 1   
     3     2    13 1   
     4     3     4 ar  
     5     3    10 ar  
     6     4     5 1   
     7     4     6 ar  
     8     5    21 1   
     9     6     7 ar  
    10     6    22 1   
    11     7     8 ar  
    12     7    23 1   
    13     8     9 1   
    14     8    10 ar  
    15     9    24 1   
    16    10    11 1   
    17    11    12 2   
    18    11    14 1   
    19    13    14 ar  
    20    13    15 ar  
    21    14    19 ar  
    22    15    16 ar  
    23    15    25 1   
    24    16    17 ar  
    25    16    26 1   
    26    17    18 1   
    27    17    19 ar  
    28    18    27 1   
    29    19    20 1   
    30    20    28 1   
@<TRIPOS>SUBSTRUCTURE
     1 TXQ         1 TEMP              0 ****  ****    0 ROOT
