@<TRIPOS>MOLECULE
TXR
   23    24     1     0     0
SMALL
abcg2


@<TRIPOS>ATOM
      1 C1         -15.1470    -5.4220   -27.3850 cc         1 TXR      -0.218000
      2 C2         -15.7010    -5.5020   -28.6930 cc         1 TXR      -0.199000
      3 C3         -16.1750    -4.2530   -28.9960 cd         1 TXR       0.162500
      4 C5         -15.3080    -4.1350   -26.9580 cd         1 TXR       0.110500
      5 C6         -14.9360    -3.4350   -25.6850 c          1 TXR       0.625500
      6 C11        -17.8430    -1.8330   -31.3350 ca         1 TXR      -0.159000
      7 C13        -17.8100    -4.0160   -32.3730 ca         1 TXR      -0.146600
      8 C14        -17.1630    -4.5180   -31.2490 ca         1 TXR      -0.076000
      9 C15        -18.1480    -4.9380   -33.5470 c          1 TXR       0.709600
     10 C9         -16.8480    -3.6970   -30.1590 ca         1 TXR      -0.136500
     11 C10        -17.1970    -2.3410   -30.2150 ca         1 TXR      -0.111000
     12 C12        -18.1500    -2.6620   -32.4080 ca         1 TXR      -0.096000
     13 O4         -15.9370    -3.4180   -27.9430 os         1 TXR      -0.230000
     14 O7         -14.4000    -4.1600   -24.8080 o          1 TXR      -0.719500
     15 O8         -15.1860    -2.2070   -25.6070 o          1 TXR      -0.719500
     16 O16        -18.7430    -4.4180   -34.5250 o          1 TXR      -0.737500
     17 O17        -17.8090    -6.1440   -33.4410 o          1 TXR      -0.737500
     18 H1         -14.6820    -6.2150   -26.8240 ha         1 TXR       0.124000
     19 H2         -15.7420    -6.3710   -29.3300 ha         1 TXR       0.120000
     20 H11        -18.1080    -0.7840   -31.3680 ha         1 TXR       0.077000
     21 H14        -16.9090    -5.5690   -31.2320 ha         1 TXR       0.128000
     22 H10        -16.9620    -1.6920   -29.3830 ha         1 TXR       0.115000
     23 H12        -18.6550    -2.2730   -33.2810 ha         1 TXR       0.114000
@<TRIPOS>BOND
     1     1     2 1   
     2     1     4 2   
     3     1    18 1   
     4     2     3 2   
     5     2    19 1   
     6     3    10 1   
     7     3    13 1   
     8     4     5 1   
     9     4    13 1   
    10     5    14 1   
    11     5    15 1   
    12     6    11 ar  
    13     6    12 ar  
    14     6    20 1   
    15     7     8 ar  
    16     7     9 1   
    17     7    12 ar  
    18     8    10 ar  
    19     8    21 1   
    20     9    16 1   
    21     9    17 1   
    22    10    11 ar  
    23    11    22 1   
    24    12    23 1   
@<TRIPOS>SUBSTRUCTURE
     1 TXR         1 TEMP              0 ****  ****    0 ROOT
