@<TRIPOS>MOLECULE
TXR
   23    24     1     0     0
SMALL
No Charge or Current Charge


@<TRIPOS>ATOM
      1 C1         -15.1810    -5.3930   -27.3820 cc         1 TXR      -0.218000
      2 C2         -15.7540    -5.4530   -28.6670 cc         1 TXR      -0.199000
      3 C3         -16.1940    -4.1860   -28.9490 cd         1 TXR       0.162500
      4 C5         -15.3070    -4.0910   -26.9590 cd         1 TXR       0.110500
      5 C6         -14.8430    -3.5250   -25.6390 c          1 TXR       0.625500
      6 C11        -17.8900    -1.8160   -31.3860 ca         1 TXR      -0.159000
      7 C13        -17.8090    -4.0390   -32.4040 ca         1 TXR      -0.146600
      8 C14        -17.1600    -4.5180   -31.2400 ca         1 TXR      -0.076000
      9 C15        -18.1110    -4.9740   -33.5670 c          1 TXR       0.709600
     10 C9         -16.8730    -3.6620   -30.1530 ca         1 TXR      -0.136500
     11 C10        -17.2460    -2.3040   -30.2390 ca         1 TXR      -0.111000
     12 C12        -18.1700    -2.6730   -32.4610 ca         1 TXR      -0.096000
     13 O4         -15.9360    -3.3120   -27.9150 os         1 TXR      -0.230000
     14 O7         -14.2930    -4.2690   -24.8360 o          1 TXR      -0.719500
     15 O8         -15.0270    -2.3380   -25.4030 o          1 TXR      -0.719500
     16 O16        -18.6730    -4.5210   -34.5540 o          1 TXR      -0.737500
     17 O17        -17.7820    -6.1480   -33.4770 o          1 TXR      -0.737500
     18 H1         -14.7310    -6.2200   -26.8410 ha         1 TXR       0.124000
     19 H2         -15.8220    -6.3370   -29.2910 ha         1 TXR       0.120000
     20 H11        -18.1730    -0.7680   -31.4420 ha         1 TXR       0.077000
     21 H14        -16.8760    -5.5650   -31.1840 ha         1 TXR       0.128000
     22 H10        -17.0390    -1.6190   -29.4190 ha         1 TXR       0.115000
     23 H12        -18.6710    -2.2710   -33.3390 ha         1 TXR       0.114000
@<TRIPOS>BOND
     1     1     2 1   
     2     1     4 2   
     3     1    18 1   
     4     2     3 2   
     5     2    19 1   
     6     3    10 1   
     7     3    13 1   
     8     4     5 1   
     9     4    13 1   
    10     5    14 1   
    11     5    15 1   
    12     6    11 ar  
    13     6    12 ar  
    14     6    20 1   
    15     7     8 ar  
    16     7     9 1   
    17     7    12 ar  
    18     8    10 ar  
    19     8    21 1   
    20     9    16 1   
    21     9    17 1   
    22    10    11 ar  
    23    11    22 1   
    24    12    23 1   
@<TRIPOS>SUBSTRUCTURE
     1 TXR         1 TEMP              0 ****  ****    0 ROOT
