@<TRIPOS>MOLECULE
TXS
   42    44     1     0     0
SMALL
No Charge or Current Charge


@<TRIPOS>ATOM
      1 C21         -4.9460    -1.1320     0.4280 c5         1 TXS       0.159800
      2 C22         -5.6560    -1.6950    -0.8270 c5         1 TXS      -0.079900
      3 C23         -4.4740    -2.0490    -1.7850 c5         1 TXS      -0.079900
      4 C24         -3.2180    -1.4810    -1.0660 c5         1 TXS       0.159800
      5 N25         -3.7970    -0.4400    -0.1870 n3         1 TXS      -0.716600
      6 C5          -2.8590     0.1990     0.7790 c3         1 TXS       0.180800
      7 C4          -1.6790     0.9990     0.1550 c5         1 TXS       0.164300
      8 O4          -0.6650     0.1210    -0.3780 os         1 TXS      -0.461000
      9 C3          -0.8550     1.8410     1.1740 c5         1 TXS       0.135300
     10 O3          -1.5150     3.0360     1.5960 oh         1 TXS      -0.699000
     11 C2           0.4130     2.1520     0.3300 c5         1 TXS      -0.166400
     12 C1           0.4760     0.9460    -0.6660 c5         1 TXS       0.337700
     13 N1           1.7300     0.1840    -0.4330 n          1 TXS      -0.315000
     14 C6           1.9810    -0.3990     0.8140 cc         1 TXS      -0.006400
     15 C7           3.1670    -1.0610     1.0460 cd         1 TXS      -0.264400
     16 C5M          3.5090    -1.7240     2.3610 c3         1 TXS      -0.019900
     17 C8           4.1870    -1.1540    -0.0300 c          1 TXS       0.587200
     18 O1           5.2630    -1.7190     0.0800 o          1 TXS      -0.526000
     19 N3           3.8250    -0.5440    -1.1890 ns         1 TXS      -0.467500
     20 C9           2.6760     0.1240    -1.4710 c          1 TXS       0.625000
     21 O2           2.5100     0.6320    -2.5680 o          1 TXS      -0.554000
     22 H21         -5.5940    -0.4530     0.9990 h1         1 TXS       0.038950
     23 H21A        -4.6170    -1.9400     1.0990 h1         1 TXS       0.038950
     24 H22         -6.2820    -2.5630    -0.5910 hc         1 TXS       0.046700
     25 H22A        -6.3070    -0.9370    -1.2770 hc         1 TXS       0.046700
     26 H23         -4.3830    -3.1280    -1.9510 hc         1 TXS       0.046700
     27 H23A        -4.6150    -1.5820    -2.7660 hc         1 TXS       0.046700
     28 H24         -2.7160    -2.2620    -0.4760 h1         1 TXS       0.038950
     29 H24A        -2.4910    -1.0770    -1.7830 h1         1 TXS       0.038950
     30 H5          -3.4280     0.8980     1.4070 h1         1 TXS       0.040200
     31 H5'A        -2.4400    -0.5600     1.4540 h1         1 TXS       0.040200
     32 H4          -2.0710     1.6350    -0.6510 h1         1 TXS       0.083700
     33 H3          -0.5970     1.2210     2.0440 h1         1 TXS       0.035700
     34 HO3         -0.9140     3.4890     2.2340 ho         1 TXS       0.511000
     35 H2           0.3030     3.0860    -0.2330 hc         1 TXS       0.076700
     36 H2'A         1.3100     2.2630     0.9490 hc         1 TXS       0.076700
     37 H1           0.4430     1.2940    -1.7080 h2         1 TXS       0.109700
     38 H6           1.1680    -0.2880     1.5240 h4         1 TXS       0.202000
     39 H5M          3.6780    -2.7990     2.2310 hc         1 TXS       0.046700
     40 H5MA         4.4180    -1.2910     2.7980 hc         1 TXS       0.046700
     41 H5MB         2.7020    -1.6040     3.0940 hc         1 TXS       0.046700
     42 HN3          4.4980    -0.5870    -1.9360 hn         1 TXS       0.344500
@<TRIPOS>BOND
     1     1     2 1   
     2     1     5 1   
     3     1    22 1   
     4     1    23 1   
     5     2     3 1   
     6     2    24 1   
     7     2    25 1   
     8     3     4 1   
     9     3    26 1   
    10     3    27 1   
    11     4     5 1   
    12     4    28 1   
    13     4    29 1   
    14     5     6 1   
    15     6     7 1   
    16     6    30 1   
    17     6    31 1   
    18     7     8 1   
    19     7     9 1   
    20     7    32 1   
    21     8    12 1   
    22     9    10 1   
    23     9    11 1   
    24     9    33 1   
    25    10    34 1   
    26    11    12 1   
    27    11    35 1   
    28    11    36 1   
    29    12    13 1   
    30    12    37 1   
    31    13    14 1   
    32    13    20 1   
    33    14    15 2   
    34    14    38 1   
    35    15    16 1   
    36    15    17 1   
    37    16    39 1   
    38    16    40 1   
    39    16    41 1   
    40    17    18 2   
    41    17    19 1   
    42    19    20 1   
    43    19    42 1   
    44    20    21 2   
@<TRIPOS>SUBSTRUCTURE
     1 TXS         1 TEMP              0 ****  ****    0 ROOT
