@<TRIPOS>MOLECULE
TXS
   42    44     1     0     0
SMALL
abcg2


@<TRIPOS>ATOM
      1 C21         -4.6040    -1.1680     0.4890 c5         1 TXS       0.159800
      2 C22         -5.3310    -1.8710    -0.6530 c5         1 TXS      -0.079900
      3 C23         -4.2320    -2.0960    -1.7120 c5         1 TXS      -0.079900
      4 C24         -2.9920    -1.4020    -1.1370 c5         1 TXS       0.159800
      5 N25         -3.5310    -0.4490    -0.1780 n3         1 TXS      -0.716600
      6 C5          -2.5780     0.1170     0.7430 c3         1 TXS       0.180800
      7 C4          -1.6210     1.1130     0.1200 c5         1 TXS       0.164300
      8 O4          -0.6110     0.4510    -0.6230 os         1 TXS      -0.461000
      9 C3          -0.8530     1.9420     1.1460 c5         1 TXS       0.135300
     10 O3          -1.6510     3.0030     1.5900 oh         1 TXS      -0.699000
     11 C2           0.3920     2.3510     0.3570 c5         1 TXS      -0.166400
     12 C1           0.5480     1.2470    -0.6960 c5         1 TXS       0.337700
     13 N1           1.7000     0.3790    -0.4910 n          1 TXS      -0.315000
     14 C6           1.8530    -0.2500     0.7170 cc         1 TXS      -0.006400
     15 C7           2.8380    -1.1180     1.0010 cd         1 TXS      -0.264400
     16 C5M          2.9860    -1.7830     2.3290 c3         1 TXS      -0.019900
     17 C8           3.7940    -1.4200    -0.0480 c          1 TXS       0.587200
     18 O1           4.7330    -2.1870     0.0640 o          1 TXS      -0.526000
     19 N3           3.5610    -0.7600    -1.2410 ns         1 TXS      -0.467500
     20 C9           2.5510     0.1160    -1.5410 c          1 TXS       0.625000
     21 O2           2.4410     0.6140    -2.6430 o          1 TXS      -0.554000
     22 H21         -5.2420    -0.4820     1.0500 h1         1 TXS       0.038950
     23 H21A        -4.2130    -1.9110     1.2050 h1         1 TXS       0.038950
     24 H22         -5.7940    -2.8000    -0.3240 hc         1 TXS       0.046700
     25 H22A        -6.1250    -1.2380    -1.0500 hc         1 TXS       0.046700
     26 H23         -4.0400    -3.1530    -1.8940 hc         1 TXS       0.046700
     27 H23A        -4.5170    -1.6570    -2.6680 hc         1 TXS       0.046700
     28 H24         -2.3350    -2.1370    -0.6420 h1         1 TXS       0.038950
     29 H24A        -2.3990    -0.9040    -1.9030 h1         1 TXS       0.038950
     30 H5          -3.1390     0.6610     1.5090 h1         1 TXS       0.040200
     31 H5'A        -1.9920    -0.6580     1.2710 h1         1 TXS       0.040200
     32 H4          -2.1860     1.7980    -0.5300 h1         1 TXS       0.083700
     33 H3          -0.5690     1.2970     1.9900 h1         1 TXS       0.035700
     34 HO3         -1.2460     3.3870     2.3720 ho         1 TXS       0.511000
     35 H2           0.1990     3.3010    -0.1430 hc         1 TXS       0.076700
     36 H2'A         1.2820     2.4780     0.9740 hc         1 TXS       0.076700
     37 H1           0.6650     1.6710    -1.6920 h2         1 TXS       0.109700
     38 H6           1.1190     0.0010     1.4700 h4         1 TXS       0.202000
     39 H5M          2.8990    -2.8670     2.2430 hc         1 TXS       0.046700
     40 H5MA         3.9600    -1.5710     2.7720 hc         1 TXS       0.046700
     41 H5MB         2.2210    -1.4390     3.0230 hc         1 TXS       0.046700
     42 HN3          4.1990    -0.9590    -2.0020 hn         1 TXS       0.344500
@<TRIPOS>BOND
     1     1     2 1   
     2     1     5 1   
     3     1    22 1   
     4     1    23 1   
     5     2     3 1   
     6     2    24 1   
     7     2    25 1   
     8     3     4 1   
     9     3    26 1   
    10     3    27 1   
    11     4     5 1   
    12     4    28 1   
    13     4    29 1   
    14     5     6 1   
    15     6     7 1   
    16     6    30 1   
    17     6    31 1   
    18     7     8 1   
    19     7     9 1   
    20     7    32 1   
    21     8    12 1   
    22     9    10 1   
    23     9    11 1   
    24     9    33 1   
    25    10    34 1   
    26    11    12 1   
    27    11    35 1   
    28    11    36 1   
    29    12    13 1   
    30    12    37 1   
    31    13    14 1   
    32    13    20 1   
    33    14    15 2   
    34    14    38 1   
    35    15    16 1   
    36    15    17 1   
    37    16    39 1   
    38    16    40 1   
    39    16    41 1   
    40    17    18 2   
    41    17    19 1   
    42    19    20 1   
    43    19    42 1   
    44    20    21 2   
@<TRIPOS>SUBSTRUCTURE
     1 TXS         1 TEMP              0 ****  ****    0 ROOT
