@<TRIPOS>MOLECULE
TXT
  110   114     1     0     0
SMALL
abcg2


@<TRIPOS>ATOM
      1 C1A         -8.4060   -14.3020    19.3550 c6         1 TXT       0.184500
      2 C1B         -5.7950   -11.8120    23.2700 c6         1 TXT       0.372300
      3 C1C         -4.3080    -6.7540    23.8770 c6         1 TXT       0.387300
      4 C1D         -4.0560    -2.8490    20.2860 c6         1 TXT       0.390300
      5 C1E         -3.8080    -3.0440    14.9840 c6         1 TXT       0.394300
      6 O1E         -3.2330    -4.3050    14.6900 oh         1 TXT      -0.751000
      7 C2A         -8.2490   -13.8400    17.9130 c6         1 TXT       0.158300
      8 O2A         -7.0120   -13.1230    17.7940 oh         1 TXT      -0.762000
      9 C2B         -5.2230   -12.8130    22.2560 c6         1 TXT       0.155300
     10 O2B         -3.8840   -12.4520    21.9070 oh         1 TXT      -0.730000
     11 C2C         -3.3110    -7.9050    23.9950 c6         1 TXT       0.155300
     12 O2C         -2.0360    -7.4520    23.5410 oh         1 TXT      -0.739000
     13 C2D         -2.9010    -3.1410    21.2450 c6         1 TXT       0.152300
     14 O2D         -1.6710    -2.8050    20.6090 oh         1 TXT      -0.740000
     15 C2E         -2.8520    -2.1790    15.8070 c6         1 TXT       0.105300
     16 O2E         -1.6040    -2.1550    15.1200 oh         1 TXT      -0.736000
     17 C3A         -8.2590   -15.0200    16.9550 c6         1 TXT       0.141300
     18 O3A         -8.1400   -14.4750    15.6400 oh         1 TXT      -0.676000
     19 C3B         -6.1020   -12.9910    21.0250 c6         1 TXT       0.104300
     20 O3B         -5.9200   -11.8780    20.1570 oh         1 TXT      -0.667000
     21 C3C         -3.8010    -9.1050    23.2090 c6         1 TXT       0.120300
     22 O3C         -2.8750   -10.1620    23.4160 oh         1 TXT      -0.753000
     23 C3D         -2.9370    -4.5940    21.6720 c6         1 TXT       0.123300
     24 O3D         -1.8680    -4.7960    22.5860 oh         1 TXT      -0.753000
     25 C3E         -2.6970    -2.7250    17.2150 c6         1 TXT       0.120300
     26 O3E         -1.8950    -1.8030    17.9400 oh         1 TXT      -0.749000
     27 C4A         -9.5120   -15.8710    17.0970 c6         1 TXT       0.148300
     28 O4A         -9.4010   -16.9200    16.1320 oh         1 TXT      -0.743000
     29 C4B         -7.5870   -13.1910    21.4240 c6         1 TXT       0.134500
     30 N4B         -8.4880   -13.1570    20.2750 n7         1 TXT      -0.878400
     31 C4C         -5.2080    -9.4890    23.6560 c6         1 TXT       0.125300
     32 O4C         -5.6940   -10.4970    22.7780 os         1 TXT      -0.477000
     33 C4D         -4.2940    -4.9150    22.2920 c6         1 TXT       0.128300
     34 O4D         -4.3490    -6.3180    22.5420 os         1 TXT      -0.487000
     35 C4E         -4.0620    -2.9340    17.8580 c6         1 TXT       0.129300
     36 O4E         -3.8800    -3.5930    19.1100 os         1 TXT      -0.493000
     37 C5A         -9.6440   -16.3760    18.5360 c6         1 TXT      -0.104700
     38 C5B         -8.0280   -12.1450    22.4490 c6         1 TXT       0.176300
     39 O5B         -7.1250   -12.1500    23.5740 os         1 TXT      -0.479000
     40 C5C         -6.1420    -8.2760    23.5910 c6         1 TXT       0.158300
     41 O5C         -5.5740    -7.1810    24.3310 os         1 TXT      -0.461000
     42 C5D         -5.4280    -4.5240    21.3400 c6         1 TXT       0.158300
     43 O5D         -5.2750    -3.1530    20.9310 os         1 TXT      -0.457000
     44 C5E         -4.9370    -3.8120    16.9610 c6         1 TXT       0.162300
     45 O5E         -5.0270    -3.2240    15.6510 os         1 TXT      -0.435000
     46 C6A        -10.8950   -17.2140    18.7550 c3         1 TXT       0.162600
     47 O6A        -10.8070   -18.4160    17.9690 oh         1 TXT      -0.683000
     48 C6B         -9.4080   -12.4040    23.0160 c3         1 TXT      -0.081100
     49 C6C         -7.5000    -8.5670    24.1830 c3         1 TXT       0.165600
     50 O6C         -8.3930    -7.5110    23.8310 oh         1 TXT      -0.726000
     51 C6D         -6.7850    -4.6500    21.9880 c3         1 TXT       0.163600
     52 O6D         -7.7890    -4.5540    20.9750 oh         1 TXT      -0.730000
     53 C6E         -6.3430    -3.9930    17.4790 c3         1 TXT       0.169600
     54 O6E         -6.9620    -2.7220    17.6800 oh         1 TXT      -0.726000
     55 C7A         -9.6530   -15.1760    19.4910 c6         1 TXT      -0.070400
     56 H1A         -7.5290   -14.9170    19.5850 h1         1 TXT       0.047700
     57 H1B         -5.2510   -11.8950    24.2120 h2         1 TXT       0.078700
     58 H1C         -4.0210    -5.9350    24.5380 h2         1 TXT       0.088700
     59 H1D         -4.1050    -1.7830    20.0600 h2         1 TXT       0.092700
     60 HO1E        -2.2730    -4.1830    14.6470 ho         1 TXT       0.532000
     61 H2A         -9.0760   -13.1670    17.6550 h1         1 TXT       0.059700
     62 HO2A        -6.8980   -12.8720    16.8680 ho         1 TXT       0.541000
     63 H2B         -5.1960   -13.7780    22.7650 h1         1 TXT       0.075700
     64 HO2B        -3.8840   -12.1530    20.9860 ho         1 TXT       0.535000
     65 H2C         -3.2500    -8.1780    25.0540 h1         1 TXT       0.063700
     66 HO2C        -1.4770    -8.2270    23.3940 ho         1 TXT       0.538000
     67 HO2D        -0.9540    -3.2230    21.1050 ho         1 TXT       0.537000
     68 H2E         -3.2740    -1.1690    15.8620 h1         1 TXT       0.069700
     69 HO2E        -0.9420    -1.7990    15.7290 ho         1 TXT       0.531000
     70 H3A         -7.3870   -15.6490    17.1720 h1         1 TXT       0.052700
     71 HO3A        -8.0820   -15.2130    15.0190 ho         1 TXT       0.472000
     72 H3B         -5.7580   -13.8930    20.5090 h1         1 TXT       0.042700
     73 HO3B        -6.1860   -12.1690    19.2660 ho         1 TXT       0.475000
     74 H3C         -3.8410    -8.8420    22.1460 h1         1 TXT       0.073700
     75 HO3C        -3.1670   -10.9360    22.8920 ho         1 TXT       0.545000
     76 H3D         -2.8020    -5.2310    20.7910 h1         1 TXT       0.070700
     77 HO3D        -1.8220    -5.7450    22.8070 ho         1 TXT       0.548000
     78 H3E         -2.1980    -3.7000    17.1660 h1         1 TXT       0.052700
     79 HO3E        -1.7030    -2.1870    18.8170 ho         1 TXT       0.546000
     80 H4A        -10.3860   -15.2520    16.8530 h1         1 TXT       0.048700
     81 HO4A        -9.9730   -17.6430    16.4430 ho         1 TXT       0.538000
     82 H4B         -7.6700   -14.1730    21.8980 h1         1 TXT       0.068700
     83 HN4B        -8.3400   -12.2910    19.7700 hn         1 TXT       0.437000
     84 H4C         -5.1700    -9.8670    24.6830 h1         1 TXT       0.058700
     85 H4D         -4.4010    -4.3620    23.2310 h1         1 TXT       0.059700
     86 H4E         -4.5550    -1.9710    18.0090 h1         1 TXT       0.082700
     87 H5A         -8.7700   -16.9950    18.7640 hc         1 TXT       0.074700
     88 H5B         -7.9970   -11.1550    21.9830 h1         1 TXT       0.065700
     89 H5C         -6.2640    -7.9850    22.5440 h1         1 TXT       0.084700
     90 H5D         -5.3860    -5.1730    20.4610 h1         1 TXT       0.077700
     91 H5E         -4.4810    -4.8030    16.8820 h1         1 TXT       0.065700
     92 H6A        -10.9890   -17.4680    19.8150 h1         1 TXT       0.034200
     93 H6AA       -11.7790   -16.6390    18.4600 h1         1 TXT       0.034200
     94 HO6A       -11.6800   -18.8260    17.9250 ho         1 TXT       0.455000
     95 H6B         -9.6620   -11.6400    23.7520 hc         1 TXT       0.046367
     96 H6BA       -10.1510   -12.3900    22.2220 hc         1 TXT       0.046367
     97 H6BB        -9.4380   -13.3820    23.5020 hc         1 TXT       0.046367
     98 H6C         -7.8560    -9.5200    23.7880 h1         1 TXT       0.041200
     99 H6CA        -7.4060    -8.6530    25.2710 h1         1 TXT       0.041200
    100 HO6C        -9.2630    -7.7190    24.1920 ho         1 TXT       0.504000
    101 H6D         -6.8460    -5.6110    22.5010 h1         1 TXT       0.047200
    102 H6DA        -6.9030    -3.8530    22.7300 h1         1 TXT       0.047200
    103 HO6D        -8.6490    -4.6950    21.3900 ho         1 TXT       0.507000
    104 H6E         -6.9080    -4.5850    16.7520 h1         1 TXT       0.043700
    105 H6EA        -6.2950    -4.5520    18.4150 h1         1 TXT       0.043700
    106 HO6E        -7.7080    -2.8420    18.2780 ho         1 TXT       0.510000
    107 H7A         -9.7320   -15.5150    20.5250 hc         1 TXT       0.057200
    108 H7AA       -10.5320   -14.5540    19.2920 hc         1 TXT       0.057200
    109 H2D         -3.0400    -2.5080    22.1280 h1         1 TXT       0.062700
    110 H1E         -4.0690    -2.5280    14.0560 h2         1 TXT       0.088700
@<TRIPOS>BOND
     1     1     7 1   
     2     1    30 1   
     3     1    55 1   
     4     1    56 1   
     5     2     9 1   
     6     2    32 1   
     7     2    39 1   
     8     2    57 1   
     9     3    11 1   
    10     3    34 1   
    11     3    41 1   
    12     3    58 1   
    13     4    13 1   
    14     4    36 1   
    15     4    43 1   
    16     4    59 1   
    17     5     6 1   
    18     5    15 1   
    19     5    45 1   
    20     5   110 1   
    21     6    60 1   
    22     7     8 1   
    23     7    17 1   
    24     7    61 1   
    25     8    62 1   
    26     9    10 1   
    27     9    19 1   
    28     9    63 1   
    29    10    64 1   
    30    11    12 1   
    31    11    21 1   
    32    11    65 1   
    33    12    66 1   
    34    13    14 1   
    35    13    23 1   
    36    13   109 1   
    37    14    67 1   
    38    15    16 1   
    39    15    25 1   
    40    15    68 1   
    41    16    69 1   
    42    17    18 1   
    43    17    27 1   
    44    17    70 1   
    45    18    71 1   
    46    19    20 1   
    47    19    29 1   
    48    19    72 1   
    49    20    73 1   
    50    21    22 1   
    51    21    31 1   
    52    21    74 1   
    53    22    75 1   
    54    23    24 1   
    55    23    33 1   
    56    23    76 1   
    57    24    77 1   
    58    25    26 1   
    59    25    35 1   
    60    25    78 1   
    61    26    79 1   
    62    27    28 1   
    63    27    37 1   
    64    27    80 1   
    65    28    81 1   
    66    29    30 1   
    67    29    38 1   
    68    29    82 1   
    69    30    83 1   
    70    31    32 1   
    71    31    40 1   
    72    31    84 1   
    73    33    34 1   
    74    33    42 1   
    75    33    85 1   
    76    35    36 1   
    77    35    44 1   
    78    35    86 1   
    79    37    46 1   
    80    37    55 1   
    81    37    87 1   
    82    38    39 1   
    83    38    48 1   
    84    38    88 1   
    85    40    41 1   
    86    40    49 1   
    87    40    89 1   
    88    42    43 1   
    89    42    51 1   
    90    42    90 1   
    91    44    45 1   
    92    44    53 1   
    93    44    91 1   
    94    46    47 1   
    95    46    92 1   
    96    46    93 1   
    97    47    94 1   
    98    48    95 1   
    99    48    96 1   
   100    48    97 1   
   101    49    50 1   
   102    49    98 1   
   103    49    99 1   
   104    50   100 1   
   105    51    52 1   
   106    51   101 1   
   107    51   102 1   
   108    52   103 1   
   109    53    54 1   
   110    53   104 1   
   111    53   105 1   
   112    54   106 1   
   113    55   107 1   
   114    55   108 1   
@<TRIPOS>SUBSTRUCTURE
     1 TXT         1 TEMP              0 ****  ****    0 ROOT
