@<TRIPOS>MOLECULE
TXT
  110   114     1     0     0
SMALL
No Charge or Current Charge


@<TRIPOS>ATOM
      1 C1A         -8.9030   -15.0460    19.7590 c6         1 TXT       0.184500
      2 C1B         -5.8900   -11.9140    22.9280 c6         1 TXT       0.372300
      3 C1C         -4.4800    -6.7720    23.3800 c6         1 TXT       0.387300
      4 C1D         -3.5440    -2.4890    20.3180 c6         1 TXT       0.390300
      5 C1E         -2.8220    -1.0280    15.2650 c6         1 TXT       0.394300
      6 O1E         -2.0300    -2.0140    14.6010 oh         1 TXT      -0.751000
      7 C2A         -9.3080   -14.5140    18.3480 c6         1 TXT       0.158300
      8 O2A         -8.5210   -13.3620    17.9750 oh         1 TXT      -0.762000
      9 C2B         -5.4200   -12.7640    21.6950 c6         1 TXT       0.155300
     10 O2B         -4.5040   -12.0350    20.8530 oh         1 TXT      -0.730000
     11 C2C         -3.5160    -8.0070    23.3310 c6         1 TXT       0.155300
     12 O2C         -2.2490    -7.7260    22.6940 oh         1 TXT      -0.739000
     13 C2D         -2.5820    -3.0530    21.4060 c6         1 TXT       0.152300
     14 O2D         -1.1930    -2.8450    21.0450 oh         1 TXT      -0.740000
     15 C2E         -2.0540    -0.4430    16.5090 c6         1 TXT       0.105300
     16 O2E         -0.7470     0.0590    16.1510 oh         1 TXT      -0.736000
     17 C3A         -9.1460   -15.6420    17.2920 c6         1 TXT       0.141300
     18 O3A         -9.4970   -15.1660    15.9800 oh         1 TXT      -0.676000
     19 C3B         -6.6000   -13.2350    20.7930 c6         1 TXT       0.104300
     20 O3B         -6.9770   -12.1910    19.8660 oh         1 TXT      -0.667000
     21 C3C         -4.2050    -9.1750    22.5730 c6         1 TXT       0.120300
     22 O3C         -3.3100   -10.3090    22.5100 oh         1 TXT      -0.753000
     23 C3D         -2.8630    -4.5710    21.6280 c6         1 TXT       0.123300
     24 O3D         -2.0040    -5.0860    22.6690 oh         1 TXT      -0.753000
     25 C3E         -1.9130    -1.5230    17.6220 c6         1 TXT       0.120300
     26 O3E         -1.2480    -0.9950    18.7940 oh         1 TXT      -0.749000
     27 C4A        -10.0370   -16.8640    17.6730 c6         1 TXT       0.148300
     28 O4A         -9.8860   -17.9070    16.7040 oh         1 TXT      -0.743000
     29 C4B         -7.8260   -13.7570    21.6290 c6         1 TXT       0.134500
     30 N4B         -9.0310   -13.9690    20.7700 n7         1 TXT      -0.878400
     31 C4C         -5.5840    -9.4980    23.2430 c6         1 TXT       0.125300
     32 O4C         -6.2860   -10.5710    22.5660 os         1 TXT      -0.477000
     33 C4D         -4.3930    -4.8090    21.9070 c6         1 TXT       0.128300
     34 O4D         -4.7100    -6.2130    22.0670 os         1 TXT      -0.487000
     35 C4E         -3.3220    -2.0910    17.9450 c6         1 TXT       0.129300
     36 O4E         -3.2460    -3.0420    19.0210 os         1 TXT      -0.493000
     37 C5A         -9.6690   -17.4100    19.0860 c6         1 TXT      -0.104700
     38 C5B         -8.1470   -12.7780    22.8090 c6         1 TXT       0.176300
     39 O5B         -6.9750   -12.5510    23.6240 os         1 TXT      -0.479000
     40 C5C         -6.4530    -8.2050    23.2600 c6         1 TXT       0.158300
     41 O5C         -5.7510    -7.1360    23.9580 os         1 TXT      -0.461000
     42 C5D         -5.2030    -4.2010    20.7270 c6         1 TXT       0.158300
     43 O5D         -4.9170    -2.7840    20.6200 os         1 TXT      -0.457000
     44 C5E         -3.9520    -2.6960    16.6650 c6         1 TXT       0.162300
     45 O5E         -4.0700    -1.6450    15.6630 os         1 TXT      -0.435000
     46 C6A        -10.5390   -18.6330    19.5020 c3         1 TXT       0.162600
     47 O6A        -10.3930   -19.7280    18.5830 oh         1 TXT      -0.683000
     48 C6B         -9.2390   -13.3230    23.7650 c3         1 TXT      -0.081100
     49 C6C         -7.8320    -8.4320    23.9620 c3         1 TXT       0.165600
     50 O6C         -8.6430    -7.2390    24.0350 oh         1 TXT      -0.726000
     51 C6D         -6.7490    -4.3620    20.8410 c3         1 TXT       0.163600
     52 O6D         -7.4440    -3.7510    19.7270 oh         1 TXT      -0.730000
     53 C6E         -5.3650    -3.3260    16.9320 c3         1 TXT       0.169600
     54 O6E         -6.3290    -2.4270    17.5240 oh         1 TXT      -0.726000
     55 C7A         -9.7660   -16.2740    20.1490 c6         1 TXT      -0.070400
     56 H1A         -7.8580   -15.3840    19.6980 h1         1 TXT       0.047700
     57 H1B         -5.0370   -11.8610    23.6210 h2         1 TXT       0.078700
     58 H1C         -4.0150    -6.0130    24.0290 h2         1 TXT       0.088700
     59 H1D         -3.4110    -1.3960    20.3030 h2         1 TXT       0.092700
     60 HO1E        -1.1340    -1.6040    14.5820 ho         1 TXT       0.532000
     61 H2A        -10.3720   -14.2340    18.3840 h1         1 TXT       0.059700
     62 HO2A        -8.6220   -13.3180    16.9900 ho         1 TXT       0.541000
     63 H2B         -4.9260   -13.6600    22.0980 h1         1 TXT       0.075700
     64 HO2B        -5.1120   -11.7500    20.1180 ho         1 TXT       0.535000
     65 H2C         -3.3430    -8.3300    24.3690 h1         1 TXT       0.063700
     66 HO2C        -1.9320    -8.6270    22.4240 ho         1 TXT       0.538000
     67 HO2D        -0.7000    -3.4830    21.6190 ho         1 TXT       0.537000
     68 H2E         -2.6670     0.3780    16.9110 h1         1 TXT       0.069700
     69 HO2E        -0.2650     0.1260    17.0140 ho         1 TXT       0.531000
     70 H3A         -8.0950   -15.9720    17.2960 h1         1 TXT       0.052700
     71 HO3A        -9.7050   -15.9870    15.4740 ho         1 TXT       0.472000
     72 H3B         -6.2170   -14.0840    20.2100 h1         1 TXT       0.042700
     73 HO3B        -7.5440   -12.6310    19.1690 ho         1 TXT       0.475000
     74 H3C         -4.4170    -8.8250    21.5510 h1         1 TXT       0.073700
     75 HO3C        -3.7220   -10.9600    21.8650 ho         1 TXT       0.545000
     76 H3D         -2.6280    -5.0870    20.6830 h1         1 TXT       0.070700
     77 HO3D        -2.0800    -6.0890    22.6330 ho         1 TXT       0.548000
     78 H3E         -1.3140    -2.3530    17.2170 h1         1 TXT       0.052700
     79 HO3E        -1.2180    -1.7340    19.4660 ho         1 TXT       0.546000
     80 H4A        -11.0880   -16.5330    17.6980 h1         1 TXT       0.048700
     81 HO4A       -10.0540   -18.7390    17.2370 ho         1 TXT       0.538000
     82 H4B         -7.5430   -14.7220    22.0800 h1         1 TXT       0.068700
     83 HN4B        -9.1930   -13.0940    20.2540 hn         1 TXT       0.437000
     84 H4C         -5.4160    -9.7960    24.2890 h1         1 TXT       0.058700
     85 H4D         -4.6860    -4.2740    22.8230 h1         1 TXT       0.059700
     86 H4E         -3.9750    -1.2580    18.2490 h1         1 TXT       0.082700
     87 H5A         -8.6290   -17.7680    19.0650 hc         1 TXT       0.074700
     88 H5B         -8.4960   -11.8170    22.4030 h1         1 TXT       0.065700
     89 H5C         -6.6520    -7.8900    22.2250 h1         1 TXT       0.084700
     90 H5D         -4.9000    -4.7060    19.7990 h1         1 TXT       0.077700
     91 H5E         -3.3020    -3.4950    16.2780 h1         1 TXT       0.065700
     92 H6A        -10.2360   -18.9480    20.5100 h1         1 TXT       0.034200
     93 H6AA       -11.5910   -18.3200    19.5560 h1         1 TXT       0.034200
     94 HO6A       -10.8310   -20.5080    18.9970 ho         1 TXT       0.455000
     95 H6B         -9.4060   -12.6350    24.6010 hc         1 TXT       0.046367
     96 H6BA       -10.1960   -13.4470    23.2460 hc         1 TXT       0.046367
     97 H6BB        -8.9540   -14.2970    24.1800 hc         1 TXT       0.046367
     98 H6C         -8.3720    -9.2160    23.4130 h1         1 TXT       0.041200
     99 H6CA        -7.6400    -8.8200    24.9720 h1         1 TXT       0.041200
    100 HO6C        -9.4450    -7.4680    24.5600 ho         1 TXT       0.504000
    101 H6D         -6.9820    -5.4340    20.8910 h1         1 TXT       0.047200
    102 H6DA        -7.0720    -3.9100    21.7890 h1         1 TXT       0.047200
    103 HO6D        -8.4090    -3.8450    19.9130 ho         1 TXT       0.507000
    104 H6E         -5.7480    -3.7070    15.9760 h1         1 TXT       0.043700
    105 H6EA        -5.2250    -4.2000    17.5820 h1         1 TXT       0.043700
    106 HO6E        -6.6590    -2.8740    18.3540 ho         1 TXT       0.510000
    107 H7A         -9.4390   -16.6510    21.1280 hc         1 TXT       0.057200
    108 H7AA       -10.8140   -15.9630    20.2700 hc         1 TXT       0.057200
    109 H2D         -2.8040    -2.5250    22.3460 h1         1 TXT       0.062700
    110 H1E         -3.0380    -0.2000    14.5700 h2         1 TXT       0.088700
@<TRIPOS>BOND
     1     1     7 1   
     2     1    30 1   
     3     1    55 1   
     4     1    56 1   
     5     2     9 1   
     6     2    32 1   
     7     2    39 1   
     8     2    57 1   
     9     3    11 1   
    10     3    34 1   
    11     3    41 1   
    12     3    58 1   
    13     4    13 1   
    14     4    36 1   
    15     4    43 1   
    16     4    59 1   
    17     5     6 1   
    18     5    15 1   
    19     5    45 1   
    20     5   110 1   
    21     6    60 1   
    22     7     8 1   
    23     7    17 1   
    24     7    61 1   
    25     8    62 1   
    26     9    10 1   
    27     9    19 1   
    28     9    63 1   
    29    10    64 1   
    30    11    12 1   
    31    11    21 1   
    32    11    65 1   
    33    12    66 1   
    34    13    14 1   
    35    13    23 1   
    36    13   109 1   
    37    14    67 1   
    38    15    16 1   
    39    15    25 1   
    40    15    68 1   
    41    16    69 1   
    42    17    18 1   
    43    17    27 1   
    44    17    70 1   
    45    18    71 1   
    46    19    20 1   
    47    19    29 1   
    48    19    72 1   
    49    20    73 1   
    50    21    22 1   
    51    21    31 1   
    52    21    74 1   
    53    22    75 1   
    54    23    24 1   
    55    23    33 1   
    56    23    76 1   
    57    24    77 1   
    58    25    26 1   
    59    25    35 1   
    60    25    78 1   
    61    26    79 1   
    62    27    28 1   
    63    27    37 1   
    64    27    80 1   
    65    28    81 1   
    66    29    30 1   
    67    29    38 1   
    68    29    82 1   
    69    30    83 1   
    70    31    32 1   
    71    31    40 1   
    72    31    84 1   
    73    33    34 1   
    74    33    42 1   
    75    33    85 1   
    76    35    36 1   
    77    35    44 1   
    78    35    86 1   
    79    37    46 1   
    80    37    55 1   
    81    37    87 1   
    82    38    39 1   
    83    38    48 1   
    84    38    88 1   
    85    40    41 1   
    86    40    49 1   
    87    40    89 1   
    88    42    43 1   
    89    42    51 1   
    90    42    90 1   
    91    44    45 1   
    92    44    53 1   
    93    44    91 1   
    94    46    47 1   
    95    46    92 1   
    96    46    93 1   
    97    47    94 1   
    98    48    95 1   
    99    48    96 1   
   100    48    97 1   
   101    49    50 1   
   102    49    98 1   
   103    49    99 1   
   104    50   100 1   
   105    51    52 1   
   106    51   101 1   
   107    51   102 1   
   108    52   103 1   
   109    53    54 1   
   110    53   104 1   
   111    53   105 1   
   112    54   106 1   
   113    55   107 1   
   114    55   108 1   
@<TRIPOS>SUBSTRUCTURE
     1 TXT         1 TEMP              0 ****  ****    0 ROOT
