@<TRIPOS>MOLECULE
TXU
   24    25     1     0     0
SMALL
abcg2


@<TRIPOS>ATOM
      1 N1          -8.2450    -1.1930     5.3950 nb         1 TXU      -0.666000
      2 C1          -6.9530    -1.4680     5.2130 ca         1 TXU       0.345900
      3 C2          -6.3720    -2.7110     5.4880 ca         1 TXU      -0.093800
      4 C3          -7.2070    -3.7060     6.0020 ca         1 TXU      -0.057000
      5 C4          -8.5510    -3.4280     6.2000 ca         1 TXU      -0.167000
      6 C5          -9.0280    -2.1620     5.8810 ca         1 TXU       0.334900
      7 N2          -4.1640    -3.7610     6.0490 nh         1 TXU      -0.619400
      8 C6          -4.9520    -2.9490     5.2040 ce         1 TXU       0.112800
      9 C7          -4.2880    -2.5580     4.1030 c2         1 TXU      -0.284200
     10 C8          -2.9070    -3.1590     4.1070 c5         1 TXU      -0.042200
     11 C9          -2.7720    -3.6040     5.5710 c5         1 TXU       0.164800
     12 HC1         -6.3330    -0.6630     4.8360 h4         1 TXU       0.023100
     13 HC3         -6.8100    -4.6870     6.2250 ha         1 TXU       0.131000
     14 HC4         -9.2240    -4.1800     6.5900 ha         1 TXU       0.124000
     15 HC5        -10.0740    -1.9160     6.0220 h4         1 TXU       0.020100
     16 HC71        -4.7360    -2.0510     3.2620 ha         1 TXU       0.199000
     17 HC82        -2.8590    -4.0150     3.4230 hc         1 TXU       0.054200
     18 HC81        -2.1140    -2.4690     3.8120 hc         1 TXU       0.054200
     19 HC91        -2.2090    -4.5270     5.7070 h1         1 TXU       0.044200
     20 HC92        -2.2840    -2.8130     6.1580 h1         1 TXU       0.044200
     21 H101        -3.6720    -4.3630     7.9810 h1         1 TXU       0.037367
     22 H103        -3.9630    -2.6180     7.8320 h1         1 TXU       0.037367
     23 H102        -5.3210    -3.7640     7.8110 h1         1 TXU       0.037367
     24 C10         -4.2930    -3.6120     7.4930 c3         1 TXU       0.168100
@<TRIPOS>BOND
     1     1     2 ar  
     2     1     6 ar  
     3     2     3 ar  
     4     2    12 1   
     5     3     4 ar  
     6     3     8 1   
     7     4     5 ar  
     8     4    13 1   
     9     5     6 ar  
    10     5    14 1   
    11     6    15 1   
    12     7     8 1   
    13     7    11 1   
    14     7    24 1   
    15     8     9 2   
    16     9    10 1   
    17     9    16 1   
    18    10    11 1   
    19    10    17 1   
    20    10    18 1   
    21    11    19 1   
    22    11    20 1   
    23    21    24 1   
    24    22    24 1   
    25    23    24 1   
@<TRIPOS>SUBSTRUCTURE
     1 TXU         1 TEMP              0 ****  ****    0 ROOT
