@<TRIPOS>MOLECULE
TXU
   24    25     1     0     0
SMALL
No Charge or Current Charge


@<TRIPOS>ATOM
      1 N1          -8.2610    -1.1550     5.2310 nb         1 TXU      -0.666000
      2 C1          -6.9600    -1.4790     5.0220 ca         1 TXU       0.345900
      3 C2          -6.3770    -2.6870     5.4590 ca         1 TXU      -0.093800
      4 C3          -7.1980    -3.6140     6.1310 ca         1 TXU      -0.057000
      5 C4          -8.5460    -3.2830     6.3490 ca         1 TXU      -0.167000
      6 C5          -9.0340    -2.0500     5.8880 ca         1 TXU       0.334900
      7 N2          -4.0920    -3.5890     6.0880 nh         1 TXU      -0.619400
      8 C6          -4.9390    -2.9720     5.1780 ce         1 TXU       0.112800
      9 C7          -4.3070    -2.6260     4.0490 c2         1 TXU      -0.284200
     10 C8          -2.8520    -3.0470     4.1400 c5         1 TXU      -0.042200
     11 C9          -2.7280    -3.7610     5.5220 c5         1 TXU       0.164800
     12 HC1         -6.3650    -0.7350     4.4930 h4         1 TXU       0.023100
     13 HC3         -6.8070    -4.5730     6.4620 ha         1 TXU       0.131000
     14 HC4         -9.2100    -3.9720     6.8640 ha         1 TXU       0.124000
     15 HC5        -10.0750    -1.7710     6.0440 h4         1 TXU       0.020100
     16 HC71        -4.7720    -2.1220     3.2010 ha         1 TXU       0.199000
     17 HC82        -2.5790    -3.7170     3.3170 hc         1 TXU       0.054200
     18 HC81        -2.1890    -2.1760     4.0830 hc         1 TXU       0.054200
     19 HC91        -2.4780    -4.8240     5.4050 h1         1 TXU       0.044200
     20 HC92        -1.9610    -3.2910     6.1520 h1         1 TXU       0.044200
     21 H101        -3.4130    -3.6510     8.1030 h1         1 TXU       0.037367
     22 H103        -5.0080    -2.8990     7.8840 h1         1 TXU       0.037367
     23 H102        -4.8300    -4.6710     7.7630 h1         1 TXU       0.037367
     24 C10         -4.3520    -3.7090     7.5380 c3         1 TXU       0.168100
@<TRIPOS>BOND
     1     1     2 ar  
     2     1     6 ar  
     3     2     3 ar  
     4     2    12 1   
     5     3     4 ar  
     6     3     8 1   
     7     4     5 ar  
     8     4    13 1   
     9     5     6 ar  
    10     5    14 1   
    11     6    15 1   
    12     7     8 1   
    13     7    11 1   
    14     7    24 1   
    15     8     9 2   
    16     9    10 1   
    17     9    16 1   
    18    10    11 1   
    19    10    17 1   
    20    10    18 1   
    21    11    19 1   
    22    11    20 1   
    23    21    24 1   
    24    22    24 1   
    25    23    24 1   
@<TRIPOS>SUBSTRUCTURE
     1 TXU         1 TEMP              0 ****  ****    0 ROOT
