@<TRIPOS>MOLECULE
TXV
   51    54     1     0     0
SMALL
abcg2


@<TRIPOS>ATOM
      1 N1          25.7780   111.8880    19.0260 ns         1 TXV      -0.155000
      2 C7          23.6180   113.5970    19.9010 ca         1 TXV      -0.080000
      3 C8          23.4210   112.3850    19.2380 ca         1 TXV      -0.148600
      4 N2          28.3070   107.7930    13.5800 na         1 TXV      -0.314400
      5 C9          22.1490   111.8160    19.2050 ca         1 TXV      -0.048000
      6 O1          29.2240   112.0970    14.8640 o          1 TXV      -0.510100
      7 C5          21.2820   113.6360    20.4990 ca         1 TXV      -0.078000
      8 C6          22.5450   114.2170    20.5250 ca         1 TXV      -0.117000
      9 N3          29.0280   108.0110    11.2910 nb         1 TXV      -0.665000
     10 C4          21.0710   112.4270    19.8360 ca         1 TXV      -0.085300
     11 C3          19.5100   110.9620    18.6420 c1         1 TXV       0.297900
     12 C2          19.6450   110.7700    21.0750 c3         1 TXV      -0.082600
     13 C14         29.2070   110.0190    17.5490 ca         1 TXV       0.203000
     14 C13         28.8890   109.8710    18.8850 ca         1 TXV      -0.157000
     15 C12         27.7410   110.4860    19.3620 ca         1 TXV      -0.079000
     16 C15         28.4470   110.7820    16.6720 ca         1 TXV      -0.230600
     17 C16         27.3230   111.4060    17.1980 ca         1 TXV       0.240000
     18 F           26.5900   112.1870    16.3860 f          1 TXV      -0.143000
     19 C11         26.9350   111.2560    18.5260 ca         1 TXV      -0.099000
     20 C10         24.5240   111.6620    18.5340 c          1 TXV       0.616700
     21 O           24.3140   110.9120    17.5890 o          1 TXV      -0.564100
     22 N           19.3450   110.3610    17.6740 n1         1 TXV      -0.449000
     23 C           18.5250   112.7430    19.9570 c3         1 TXV      -0.082600
     24 C17         28.8440   110.9900    15.2290 c          1 TXV       0.640900
     25 C18         28.7420   109.8590    14.3440 cc         1 TXV      -0.235400
     26 C21         29.1180   109.8050    12.9520 ca         1 TXV      -0.077800
     27 C22         29.6590   110.6890    12.0240 ca         1 TXV      -0.012000
     28 C23         29.8640   110.1920    10.7460 ca         1 TXV       0.043000
     29 CL          30.5350   111.2260     9.5090 cl         1 TXV      -0.194000
     30 C24         29.5460   108.8700    10.4120 ca         1 TXV       0.363900
     31 C20         28.8320   108.4910    12.5080 ca         1 TXV       0.354500
     32 C19         28.2510   108.6000    14.6640 cd         1 TXV      -0.061100
     33 H1          25.8620   112.3370    19.9250 hn         1 TXV       0.160000
     34 H2          24.5900   114.0730    19.9090 ha         1 TXV       0.119000
     35 H3          28.0060   106.8300    13.5520 hn         1 TXV       0.370000
     36 H4          22.0220   110.8790    18.6790 ha         1 TXV       0.143000
     37 H5          20.4660   114.1380    20.9980 ha         1 TXV       0.119000
     38 H6          22.6880   115.1630    21.0300 ha         1 TXV       0.121000
     39 H7          19.7760   111.3460    21.9920 hc         1 TXV       0.048700
     40 H8          18.6810   110.2620    21.1100 hc         1 TXV       0.048700
     41 H9          20.4390   110.0280    21.0090 hc         1 TXV       0.048700
     42 H10         29.5210   109.2770    19.5290 ha         1 TXV       0.142000
     43 H11         27.4530   110.3690    20.3980 ha         1 TXV       0.125000
     44 H12         18.5470   113.2580    20.9150 hc         1 TXV       0.048700
     45 H13         18.5770   113.4780    19.1540 hc         1 TXV       0.048700
     46 H14         17.5800   112.2050    19.8850 hc         1 TXV       0.048700
     47 H15         29.9040   111.7090    12.2790 ha         1 TXV       0.157000
     48 H16         29.7180   108.5090     9.4060 h4         1 TXV       0.037100
     49 H17         27.8620   108.2370    15.6010 h4         1 TXV       0.228000
     50 C1          19.6980   111.7440    19.8730 c3         1 TXV       0.063400
     51 F1          30.3200   109.4150    17.0750 f          1 TXV      -0.168000
@<TRIPOS>BOND
     1     1    19 1   
     2     1    20 1   
     3     1    33 1   
     4     2     3 ar  
     5     2     8 ar  
     6     2    34 1   
     7     3     5 ar  
     8     3    20 1   
     9     4    31 1   
    10     4    32 1   
    11     4    35 1   
    12     5    10 ar  
    13     5    36 1   
    14     6    24 2   
    15     7     8 ar  
    16     7    10 ar  
    17     7    37 1   
    18     8    38 1   
    19     9    30 ar  
    20     9    31 ar  
    21    10    50 1   
    22    11    22 3   
    23    11    50 1   
    24    12    39 1   
    25    12    40 1   
    26    12    41 1   
    27    12    50 1   
    28    13    14 ar  
    29    13    16 ar  
    30    13    51 1   
    31    14    15 ar  
    32    14    42 1   
    33    15    19 ar  
    34    15    43 1   
    35    16    17 ar  
    36    16    24 1   
    37    17    18 1   
    38    17    19 ar  
    39    20    21 2   
    40    23    44 1   
    41    23    45 1   
    42    23    46 1   
    43    23    50 1   
    44    24    25 1   
    45    25    26 1   
    46    25    32 2   
    47    26    27 ar  
    48    26    31 ar  
    49    27    28 ar  
    50    27    47 1   
    51    28    29 1   
    52    28    30 ar  
    53    30    48 1   
    54    32    49 1   
@<TRIPOS>SUBSTRUCTURE
     1 TXV         1 TEMP              0 ****  ****    0 ROOT
