@<TRIPOS>MOLECULE
TXV
   51    54     1     0     0
SMALL
No Charge or Current Charge


@<TRIPOS>ATOM
      1 N1          25.6960   111.7860    18.9930 ns         1 TXV      -0.155000
      2 C7          23.6580   113.0970    20.5560 ca         1 TXV      -0.080000
      3 C8          23.3190   112.1710    19.5430 ca         1 TXV      -0.148600
      4 N2          29.2780   107.4500    13.9390 na         1 TXV      -0.314400
      5 C9          21.9520   111.8920    19.3130 ca         1 TXV      -0.048000
      6 O1          28.2370   111.9700    14.2260 o          1 TXV      -0.510100
      7 C5          21.3000   113.4300    21.0740 ca         1 TXV      -0.078000
      8 C6          22.6520   113.7170    21.3110 ca         1 TXV      -0.117000
      9 N3          29.8320   107.5290    11.5540 nb         1 TXV      -0.665000
     10 C4          20.9230   112.5080    20.0680 ca         1 TXV      -0.085300
     11 C3          19.1530   112.5120    18.3610 c1         1 TXV       0.297900
     12 C2          19.2140   110.6330    19.9740 c3         1 TXV      -0.082600
     13 C14         29.3460   110.6030    17.1940 ca         1 TXV       0.203000
     14 C13         29.2130   110.6510    18.5880 ca         1 TXV      -0.157000
     15 C12         27.9970   111.0450    19.1690 ca         1 TXV      -0.079000
     16 C15         28.2680   110.9530    16.3620 ca         1 TXV      -0.230600
     17 C16         27.0550   111.3640    16.9450 ca         1 TXV       0.240000
     18 F           26.0400   111.7640    16.1450 f          1 TXV      -0.143000
     19 C11         26.9040   111.3890    18.3540 ca         1 TXV      -0.099000
     20 C10         24.3730   111.4780    18.6980 c          1 TXV       0.616700
     21 O           24.0670   110.6710    17.8260 o          1 TXV      -0.564100
     22 N           18.9160   112.7660    17.2480 n1         1 TXV      -0.449000
     23 C           18.4270   112.9220    20.6700 c3         1 TXV      -0.082600
     24 C17         28.4150   110.9470    14.8740 c          1 TXV       0.640900
     25 C18         28.8520   109.6680    14.2500 cc         1 TXV      -0.235400
     26 C21         29.2100   109.4280    12.8760 ca         1 TXV      -0.077800
     27 C22         29.3260   110.3180    11.7960 ca         1 TXV      -0.012000
     28 C23         29.7090   109.7610    10.5630 ca         1 TXV       0.043000
     29 Cl          29.8840   110.7880     9.1400 cl         1 TXV      -0.194000
     30 C24         29.9500   108.3680    10.4880 ca         1 TXV       0.363900
     31 C20         29.4650   108.0800    12.7270 ca         1 TXV       0.354500
     32 C19         28.8810   108.4290    14.8820 cd         1 TXV      -0.061100
     33 H1          25.8230   112.3970    19.7880 hn         1 TXV       0.160000
     34 H2          24.6930   113.3520    20.7730 ha         1 TXV       0.119000
     35 H3          29.3900   106.4570    14.1040 hn         1 TXV       0.370000
     36 H4          21.6860   111.1850    18.5300 ha         1 TXV       0.143000
     37 H5          20.5630   113.9370    21.6890 ha         1 TXV       0.119000
     38 H6          22.9230   114.4280    22.0880 ha         1 TXV       0.121000
     39 H7          19.4660   110.3430    21.0020 hc         1 TXV       0.048700
     40 H8          18.1660   110.3610    19.7960 hc         1 TXV       0.048700
     41 H9          19.8310   110.0320    19.2960 hc         1 TXV       0.048700
     42 H10         30.0590   110.3880    19.2200 ha         1 TXV       0.142000
     43 H11         27.9040   111.0770    20.2530 ha         1 TXV       0.125000
     44 H12         18.5810   112.6790    21.7280 hc         1 TXV       0.048700
     45 H13         18.5230   114.0080    20.5450 hc         1 TXV       0.048700
     46 H14         17.3940   112.6510    20.4180 hc         1 TXV       0.048700
     47 H15         29.1360   111.3820    11.8950 ha         1 TXV       0.157000
     48 H16         30.2480   107.9110     9.5440 h4         1 TXV       0.037100
     49 H17         28.6400   108.1680    15.9110 h4         1 TXV       0.228000
     50 C1          19.4400   112.1570    19.7690 c3         1 TXV       0.063400
     51 F1          30.5410   110.2630    16.6640 f          1 TXV      -0.168000
@<TRIPOS>BOND
     1     1    19 1   
     2     1    20 1   
     3     1    33 1   
     4     2     3 ar  
     5     2     8 ar  
     6     2    34 1   
     7     3     5 ar  
     8     3    20 1   
     9     4    31 1   
    10     4    32 1   
    11     4    35 1   
    12     5    10 ar  
    13     5    36 1   
    14     6    24 2   
    15     7     8 ar  
    16     7    10 ar  
    17     7    37 1   
    18     8    38 1   
    19     9    30 ar  
    20     9    31 ar  
    21    10    50 1   
    22    11    22 3   
    23    11    50 1   
    24    12    39 1   
    25    12    40 1   
    26    12    41 1   
    27    12    50 1   
    28    13    14 ar  
    29    13    16 ar  
    30    13    51 1   
    31    14    15 ar  
    32    14    42 1   
    33    15    19 ar  
    34    15    43 1   
    35    16    17 ar  
    36    16    24 1   
    37    17    18 1   
    38    17    19 ar  
    39    20    21 2   
    40    23    44 1   
    41    23    45 1   
    42    23    46 1   
    43    23    50 1   
    44    24    25 1   
    45    25    26 1   
    46    25    32 2   
    47    26    27 ar  
    48    26    31 ar  
    49    27    28 ar  
    50    27    47 1   
    51    28    29 1   
    52    28    30 ar  
    53    30    48 1   
    54    32    49 1   
@<TRIPOS>SUBSTRUCTURE
     1 TXV         1 TEMP              0 ****  ****    0 ROOT
