@<TRIPOS>MOLECULE
TXW
   29    30     1     0     0
SMALL
No Charge or Current Charge


@<TRIPOS>ATOM
      1 C5           0.6210    -0.9560     0.2240 ca         1 TXW      -0.226000
      2 C7          -0.9460     0.8800     0.0920 ca         1 TXW      -0.201800
      3 C6          -0.6850    -0.4960     0.0460 ca         1 TXW       0.136600
      4 C4           1.6410    -0.0220     0.4470 ca         1 TXW       0.406300
      5 C13          0.1450     1.7500     0.3210 ca         1 TXW       0.427300
      6 C8          -2.3220     1.3670    -0.0960 cc         1 TXW      -0.068200
      7 C9          -3.3050     0.4140    -0.3140 cd         1 TXW      -0.301200
      8 C10         -3.0570    -1.0420    -0.3680 c          1 TXW       0.563200
      9 C15         -0.0280     3.2580     0.3880 c3         1 TXW      -0.154400
     10 C1           5.2480    -1.2470    -0.5180 c3         1 TXW      -0.090100
     11 C3           3.0820    -0.4710     0.6380 c3         1 TXW      -0.131700
     12 C2           3.7900    -0.7830    -0.7000 c3         1 TXW      -0.071400
     13 N14          1.4110     1.3070     0.4940 nb         1 TXW      -0.709000
     14 N12         -1.7460    -1.3800    -0.1800 ns         1 TXW      -0.373100
     15 O11         -3.9270    -1.8750    -0.5600 o          1 TXW      -0.544000
     16 H5           0.8490    -2.0170     0.1900 ha         1 TXW       0.130000
     17 H8          -2.5850     2.4230    -0.0700 ha         1 TXW       0.190000
     18 H12         -1.5300    -2.3670    -0.2090 hn         1 TXW       0.329500
     19 H31C         3.6510     0.2960     1.1760 hc         1 TXW       0.055700
     20 H32C         3.1020    -1.3660     1.2730 hc         1 TXW       0.055700
     21 H151        -0.7130     3.5350     1.1980 hc         1 TXW       0.056700
     22 H152         0.9230     3.7730     0.5720 hc         1 TXW       0.056700
     23 H153        -0.4350     3.6460    -0.5520 hc         1 TXW       0.056700
     24 H9          -4.3420     0.6920    -0.4620 ha         1 TXW       0.211000
     25 H11C         5.8420    -0.4730    -0.0170 hc         1 TXW       0.033367
     26 H12C         5.2920    -2.1620     0.0840 hc         1 TXW       0.033367
     27 H13C         5.7070    -1.4540    -1.4920 hc         1 TXW       0.033367
     28 H21C         3.7750     0.1120    -1.3340 hc         1 TXW       0.048200
     29 H22C         3.2320    -1.5620    -1.2350 hc         1 TXW       0.048200
@<TRIPOS>BOND
     1     1     3 ar  
     2     1     4 ar  
     3     1    16 1   
     4     2     3 ar  
     5     2     5 ar  
     6     2     6 1   
     7     3    14 1   
     8     4    11 1   
     9     4    13 ar  
    10     5     9 1   
    11     5    13 ar  
    12     6     7 2   
    13     6    17 1   
    14     7     8 1   
    15     7    24 1   
    16     8    14 1   
    17     8    15 2   
    18     9    21 1   
    19     9    22 1   
    20     9    23 1   
    21    10    12 1   
    22    10    25 1   
    23    10    26 1   
    24    10    27 1   
    25    11    12 1   
    26    11    19 1   
    27    11    20 1   
    28    12    28 1   
    29    12    29 1   
    30    14    18 1   
@<TRIPOS>SUBSTRUCTURE
     1 TXW         1 TEMP              0 ****  ****    0 ROOT
