@<TRIPOS>MOLECULE
TXW
   29    30     1     0     0
SMALL
abcg2


@<TRIPOS>ATOM
      1 C5           0.5080    -1.1150     0.3000 ca         1 TXW      -0.226000
      2 C7          -0.9260     0.8110     0.0610 ca         1 TXW      -0.201800
      3 C6          -0.7690    -0.5780     0.1250 ca         1 TXW       0.136600
      4 C4           1.5730    -0.2480     0.4100 ca         1 TXW       0.406300
      5 C13          0.2300     1.6100     0.1810 ca         1 TXW       0.427300
      6 C8          -2.2490     1.3250    -0.1190 cc         1 TXW      -0.068200
      7 C9          -3.3100     0.5000    -0.2230 cd         1 TXW      -0.301200
      8 C10         -3.1610    -0.9430    -0.1580 c          1 TXW       0.563200
      9 C15          0.1350     3.1040     0.1190 c3         1 TXW      -0.154400
     10 C1           5.2760    -0.9360    -0.4630 c3         1 TXW      -0.090100
     11 C3           2.9750    -0.7520     0.5750 c3         1 TXW      -0.131700
     12 C2           3.8350    -0.4920    -0.6640 c3         1 TXW      -0.071400
     13 N14          1.4280     1.0880     0.3500 nb         1 TXW      -0.709000
     14 N12         -1.8670    -1.3780     0.0140 ns         1 TXW      -0.373100
     15 O11         -4.0840    -1.7420    -0.2430 o          1 TXW      -0.544000
     16 H5           0.6550    -2.1870     0.3500 ha         1 TXW       0.130000
     17 H8          -2.4010     2.3950    -0.1700 ha         1 TXW       0.190000
     18 H12         -1.7310    -2.3800     0.0600 hn         1 TXW       0.329500
     19 H31C         3.4300    -0.2530     1.4360 hc         1 TXW       0.055700
     20 H32C         2.9620    -1.8210     0.7950 hc         1 TXW       0.055700
     21 H151        -0.5300     3.4970     0.8890 hc         1 TXW       0.056700
     22 H152         1.1190     3.5450     0.2610 hc         1 TXW       0.056700
     23 H153        -0.2550     3.4370    -0.8440 hc         1 TXW       0.056700
     24 H9          -4.3110     0.8860    -0.3590 ha         1 TXW       0.211000
     25 H11C         5.7380    -0.4030     0.3700 hc         1 TXW       0.033367
     26 H12C         5.3370    -2.0040    -0.2430 hc         1 TXW       0.033367
     27 H13C         5.8770    -0.7460    -1.3520 hc         1 TXW       0.033367
     28 H21C         3.8050     0.5740    -0.9020 hc         1 TXW       0.048200
     29 H22C         3.4000    -1.0130    -1.5210 hc         1 TXW       0.048200
@<TRIPOS>BOND
     1     1     3 ar  
     2     1     4 ar  
     3     1    16 1   
     4     2     3 ar  
     5     2     5 ar  
     6     2     6 1   
     7     3    14 1   
     8     4    11 1   
     9     4    13 ar  
    10     5     9 1   
    11     5    13 ar  
    12     6     7 2   
    13     6    17 1   
    14     7     8 1   
    15     7    24 1   
    16     8    14 1   
    17     8    15 2   
    18     9    21 1   
    19     9    22 1   
    20     9    23 1   
    21    10    12 1   
    22    10    25 1   
    23    10    26 1   
    24    10    27 1   
    25    11    12 1   
    26    11    19 1   
    27    11    20 1   
    28    12    28 1   
    29    12    29 1   
    30    14    18 1   
@<TRIPOS>SUBSTRUCTURE
     1 TXW         1 TEMP              0 ****  ****    0 ROOT
