@<TRIPOS>MOLECULE
TXX
  199   208     1     0     0
SMALL
No Charge or Current Charge


@<TRIPOS>ATOM
      1 O9         122.3100    82.1540   118.7630 o          1 TXX      -0.487000
      2 C31        122.7080    83.1180   118.1230 c          1 TXX       0.514600
      3 C32        121.8220    83.8700   117.1230 ca         1 TXX       0.283500
      4 N9         122.3580    84.8710   116.3750 nb         1 TXX      -0.637000
      5 C33        120.4750    83.4800   116.9640 ca         1 TXX      -0.083000
      6 C34        121.5830    85.4760   115.4440 ca         1 TXX       0.322300
      7 C36        119.6520    84.0990   115.9940 ca         1 TXX      -0.068300
      8 C35        122.3080    86.4860   114.5280 c6         1 TXX       0.126000
      9 C37        120.2310    85.1330   115.2130 ca         1 TXX      -0.047800
     10 O10        122.9890    85.8020   113.4460 oh         1 TXX      -0.698000
     11 C39        121.3380    87.5770   113.9600 c6         1 TXX       0.207700
     12 C38        118.1890    83.6620   115.8190 c3         1 TXX       0.227600
     13 O11        118.0000    82.2950   116.1860 oh         1 TXX      -0.680000
     14 C41        119.4970    85.8740   114.1400 ce         1 TXX      -0.135200
     15 C40        117.2360    84.5350   116.6530 c3         1 TXX      -0.090100
     16 C42        120.0080    86.9780   113.5550 c2         1 TXX      -0.206200
     17 N10        121.0360    88.6830   114.8980 n7         1 TXX      -0.896400
     18 C43        122.1820    89.5420   115.3630 c3         1 TXX       0.097500
     19 C44        122.7730    89.0940   116.7420 c          1 TXX       0.601100
     20 O12        123.9100    89.3570   117.1150 o          1 TXX      -0.625100
     21 C45        121.7590    91.0420   115.3770 c3         1 TXX      -0.071700
     22 C46        120.5890    91.3420   116.3640 c3         1 TXX      -0.074400
     23 C47        121.4770    91.5590   113.9410 c3         1 TXX      -0.093100
     24 C48        120.2650    92.8410   116.5400 c3         1 TXX      -0.090100
     25 N11        121.9050    88.3240   117.4780 ns         1 TXX      -0.482900
     26 C49        122.1680    87.6980   118.7860 c3         1 TXX       0.046700
     27 C50        121.0310    86.6880   119.1150 c          1 TXX       0.595100
     28 O13        119.9390    86.7260   118.5620 o          1 TXX      -0.589100
     29 C51        122.3060    88.7640   119.9000 c3         1 TXX      -0.111100
     30 N12        121.3690    85.7320   120.0550 ns         1 TXX      -0.411100
     31 C52        120.6720    84.6080   120.5730 ce         1 TXX      -0.034600
     32 C53        119.3710    84.3050   120.3340 c2         1 TXX      -0.321000
     33 C54        121.6190    83.7260   121.3750 c          1 TXX       0.607300
     34 O14        122.7630    84.0680   121.6440 o          1 TXX      -0.637100
     35 N13        121.1410    82.4850   121.7190 ns         1 TXX      -0.469900
     36 C55        122.0070    81.3340   122.0360 c3         1 TXX       0.044700
     37 C56        121.4210    80.0830   121.3340 c          1 TXX       0.585100
     38 O15        120.2220    79.8440   121.3260 o          1 TXX      -0.620100
     39 C57        122.1400    81.1410   123.5600 c3         1 TXX      -0.100100
     40 N15        122.3420    79.2730   120.7060 ns         1 TXX      -0.480900
     41 C61        122.0710    78.1470   119.7740 c6         1 TXX       0.090100
     42 C62        121.4700    76.9410   120.5590 c6         1 TXX      -0.091400
     43 C1         121.1320    78.5700   118.6140 cc         1 TXX       0.392700
     44 N1         121.5480    79.1140   117.4700 nd         1 TXX      -0.625000
     45 C2         120.4810    79.5450   116.6820 cd         1 TXX       0.201500
     46 C4         120.5900    80.2740   115.3680 c          1 TXX       0.545600
     47 O1         119.6460    80.7630   114.7560 o          1 TXX      -0.648100
     48 C3         119.2470    79.2720   117.2260 cc         1 TXX      -0.224000
     49 S1         119.3880    78.3940   118.7160 ss         1 TXX       0.095600
     50 N2         121.8850    80.3490   114.9040 ns         1 TXX      -0.464900
     51 C5         122.3030    81.0040   113.6370 c3         1 TXX       0.021700
     52 C6         123.3930    80.1650   112.9140 c          1 TXX       0.604100
     53 O2         123.8070    79.1040   113.3640 o          1 TXX      -0.600100
     54 C7         122.7080    82.4840   113.8670 c3         1 TXX       0.165300
     55 O3         122.7940    83.1890   112.6270 oh         1 TXX      -0.698000
     56 C8         124.0430    82.6450   114.6210 c3         1 TXX      -0.141100
     57 N3         123.8720    80.7270   111.7460 ns         1 TXX      -0.411100
     58 C11        124.7720    80.2740   110.7360 ce         1 TXX      -0.058000
     59 C9         124.8970    78.9770   110.3290 c2         1 TXX      -0.156200
     60 C10        124.0890    77.7650   110.7530 c3         1 TXX      -0.058900
     61 C13        125.5940    81.3640   110.1180 ce         1 TXX       0.526500
     62 N4         125.7720    82.5070   110.7130 n2         1 TXX      -0.596900
     63 C15        126.7290    83.3290   109.8760 c5         1 TXX       0.024500
     64 C14        127.5960    84.3720   110.6600 c          1 TXX       0.616100
     65 O4         128.6410    84.8830   110.2800 o          1 TXX      -0.601100
     66 C12        127.6950    82.3000   109.2300 c5         1 TXX       0.042600
     67 S2         126.5450    80.9880   108.6520 ss         1 TXX      -0.353200
     68 N5         127.0560    84.6090   111.9030 ns         1 TXX      -0.481900
     69 C16        127.6510    85.5000   112.9300 c3         1 TXX       0.049400
     70 C21        128.2410    84.6870   114.0640 cc         1 TXX       0.383700
     71 C17        126.6700    86.6290   113.4030 c3         1 TXX       0.206000
     72 O5         125.5780    85.9830   114.0730 oh         1 TXX      -0.706000
     73 C18        127.3480    87.5540   114.4520 c3         1 TXX      -0.120100
     74 C19        126.1180    87.4570   112.1720 c3         1 TXX       0.180300
     75 O6         127.1950    88.0670   111.4410 oh         1 TXX      -0.662000
     76 C20        125.1080    88.5750   112.5280 c3         1 TXX      -0.125100
     77 N6         127.5100    84.1420   115.0370 nd         1 TXX      -0.667000
     78 C22        128.3430    83.4140   115.9000 cd         1 TXX       0.216500
     79 C24        127.9190    82.6380   117.1220 c          1 TXX       0.535600
     80 O7         128.6760    81.9940   117.8390 o          1 TXX      -0.588100
     81 C23        129.6750    83.4400   115.5430 cc         1 TXX      -0.213000
     82 S3         129.9540    84.3800   114.1090 ss         1 TXX       0.077600
     83 N8         126.5650    82.7110   117.3690 ns         1 TXX      -0.498900
     84 C28        125.8760    82.0660   118.5130 c3         1 TXX       0.067400
     85 C27        125.2710    80.7120   118.1820 cc         1 TXX       0.395700
     86 C29        124.9010    83.0620   119.2090 c3         1 TXX       0.173300
     87 O8         123.9870    83.6260   118.2400 os         1 TXX      -0.433100
     88 C30        125.6450    84.2650   119.8290 c3         1 TXX      -0.097100
     89 N7         124.6630    79.9440   119.0810 nd         1 TXX      -0.658000
     90 C25        124.2480    78.7520   118.4820 cd         1 TXX       0.315300
     91 C60        123.4620    77.6480   119.2060 c6         1 TXX       0.116200
     92 C26        124.6340    78.6090   117.1680 cc         1 TXX      -0.249000
     93 S4         125.5010    79.9980   116.6020 ss         1 TXX       0.040600
     94 N14        124.3300    76.9250   120.1870 n2         1 TXX      -0.604900
     95 C58        123.8770    76.3910   121.2900 ce         1 TXX       0.403300
     96 C63        124.7880    75.6360   122.1850 cc         1 TXX       0.358100
     97 C59        122.4020    76.4900   121.7090 c6         1 TXX      -0.147700
     98 N16        124.4210    75.0850   123.3440 nd         1 TXX      -0.584000
     99 C64        125.5010    74.4480   123.9660 cd         1 TXX       0.222500
    100 C66        125.4310    73.7190   125.2960 c          1 TXX       0.541600
    101 O16        124.4010    73.6220   125.9560 o          1 TXX      -0.551100
    102 C65        126.6790    74.5430   123.2390 cc         1 TXX      -0.270000
    103 S5         126.4670    75.4330   121.7590 ss         1 TXX       0.114600
    104 N17        126.6360    73.1650   125.7110 ns         1 TXX      -0.410100
    105 C67        127.0160    72.4170   126.8610 ce         1 TXX      -0.033600
    106 C68        126.1920    72.0630   127.8820 c2         1 TXX      -0.323000
    107 C69        128.5000    72.0580   126.7950 c          1 TXX       0.604300
    108 O17        129.2010    72.4020   125.8500 o          1 TXX      -0.607100
    109 N18        128.9920    71.3280   127.8620 ns         1 TXX      -0.395100
    110 C70        130.2810    70.8110   128.1700 ce         1 TXX      -0.039600
    111 C71        131.3960    70.9430   127.4060 c2         1 TXX      -0.324000
    112 C72        130.2530    70.0700   129.5020 c          1 TXX       0.600300
    113 O18        129.2410    69.9590   130.1780 o          1 TXX      -0.615100
    114 N19        131.4060    69.5160   129.9390 nt         1 TXX      -0.590000
    115 H33        120.0780    82.6890   117.5940 ha         1 TXX       0.157000
    116 H35        123.0660    86.9930   115.1390 h1         1 TXX       0.072700
    117 HO10       123.9640    85.9060   113.6500 ho         1 TXX       0.489000
    118 H39        121.8050    88.0180   113.0660 h1         1 TXX       0.045700
    119 H38        117.9070    83.7630   114.7650 h1         1 TXX       0.038700
    120 HO11       118.5720    81.7590   115.5690 ho         1 TXX       0.481000
    121 H41        118.5270    85.4980   113.8210 ha         1 TXX       0.190000
    122 H40        116.1940    84.2400   116.4820 hc         1 TXX       0.048033
    123 H40A       117.4530    84.4340   117.7220 hc         1 TXX       0.048033
    124 H40B       117.3420    85.5910   116.3780 hc         1 TXX       0.048033
    125 H42        119.4660    87.4970   112.7640 ha         1 TXX       0.182000
    126 HN10       120.3700    89.3000   114.4200 hn         1 TXX       0.441000
    127 H43        123.0130    89.4580   114.6510 h1         1 TXX       0.061700
    128 H45        122.6320    91.6010   115.7390 hc         1 TXX       0.073700
    129 H46        119.6800    90.8220   116.0340 hc         1 TXX       0.045200
    130 H46A       120.8360    90.9380   117.3530 hc         1 TXX       0.045200
    131 H47        121.3990    92.6530   113.9250 hc         1 TXX       0.035033
    132 H47A       122.2920    91.2800   113.2620 hc         1 TXX       0.035033
    133 H47B       120.5430    91.1440   113.5440 hc         1 TXX       0.035033
    134 H48        119.5070    92.9740   117.3220 hc         1 TXX       0.033367
    135 H48A       121.1600    93.4000   116.8350 hc         1 TXX       0.033367
    136 H48B       119.8700    93.2740   115.6140 hc         1 TXX       0.033367
    137 HN11       121.0240    88.1320   117.0050 hn         1 TXX       0.361500
    138 H49        123.1040    87.1280   118.7130 h1         1 TXX       0.076700
    139 H51        122.4970    88.2890   120.8700 hc         1 TXX       0.053033
    140 H51A       123.1390    89.4460   119.6930 hc         1 TXX       0.053033
    141 H51B       121.3880    89.3570   119.9830 hc         1 TXX       0.053033
    142 HN12       122.3190    85.7900   120.4110 hn         1 TXX       0.345500
    143 H53        118.8800    83.4190   120.7350 ha         1 TXX       0.189500
    144 H53A       118.7280    84.9500   119.7390 ha         1 TXX       0.189500
    145 HN13       120.1840    82.2830   121.4580 hn         1 TXX       0.337500
    146 H55        123.0040    81.5120   121.6130 h1         1 TXX       0.083700
    147 H57        122.7900    80.2870   123.7840 hc         1 TXX       0.052700
    148 H57A       122.5760    82.0340   124.0240 hc         1 TXX       0.052700
    149 H57B       121.1600    80.9580   124.0160 hc         1 TXX       0.052700
    150 HN15       123.2990    79.6160   120.7050 hn         1 TXX       0.364500
    151 H62        121.3040    76.0980   119.8720 hc         1 TXX       0.069700
    152 H62A       120.4880    77.1870   120.9850 hc         1 TXX       0.069700
    153 H3         118.2670    79.5030   116.8310 h4         1 TXX       0.182000
    154 HN2        122.5810    79.8660   115.4650 hn         1 TXX       0.357500
    155 H5         121.4420    81.0070   112.9570 h1         1 TXX       0.109700
    156 H7         121.9140    82.9370   114.4720 h1         1 TXX       0.046700
    157 HO3        122.8000    84.1590   112.8620 ho         1 TXX       0.491000
    158 H8         124.2860    83.7020   114.7610 hc         1 TXX       0.049700
    159 H8A        123.9700    82.1930   115.6140 hc         1 TXX       0.049700
    160 H8B        124.8760    82.1780   114.0820 hc         1 TXX       0.049700
    161 HN3        123.6400    81.7180   111.6640 hn         1 TXX       0.358500
    162 H9         125.6240    78.7050   109.5640 ha         1 TXX       0.189000
    163 H10        124.0560    77.0200   109.9490 hc         1 TXX       0.053700
    164 H10A       124.5320    77.2770   111.6290 hc         1 TXX       0.053700
    165 H10B       123.0510    78.0290   110.9870 hc         1 TXX       0.053700
    166 H15        126.1700    83.8850   109.1120 h1         1 TXX       0.099700
    167 H12        128.3910    81.8820   109.9700 h1         1 TXX       0.096700
    168 H12A       128.2760    82.7190   108.3970 h1         1 TXX       0.096700
    169 H16        128.4980    86.0230   112.4660 h1         1 TXX       0.118700
    170 HN5        126.2140    84.0820   112.1190 hn         1 TXX       0.349500
    171 HO5        126.0120    85.2960   114.6440 ho         1 TXX       0.493000
    172 H18        126.6440    88.2990   114.8380 hc         1 TXX       0.054700
    173 H18A       127.7150    86.9900   115.3180 hc         1 TXX       0.054700
    174 H18B       128.2000    88.0860   114.0120 hc         1 TXX       0.054700
    175 H19        125.5890    86.7530   111.5150 h1         1 TXX       0.044700
    176 HO6        126.7970    88.5250   110.6690 ho         1 TXX       0.452000
    177 H20        124.6600    88.9900   111.6170 hc         1 TXX       0.045367
    178 H20A       124.2970    88.1870   113.1490 hc         1 TXX       0.045367
    179 H20B       125.5920    89.3960   113.0700 hc         1 TXX       0.045367
    180 H23        130.5110    82.9620   116.0360 h4         1 TXX       0.185000
    181 HN8        126.0270    83.2940   116.7350 hn         1 TXX       0.350500
    182 H28        126.6420    81.8410   119.2670 h1         1 TXX       0.106700
    183 H29        124.3720    82.5490   120.0240 h1         1 TXX       0.094700
    184 H30        124.9380    84.9510   120.3090 hc         1 TXX       0.053700
    185 H30A       126.3570    83.9260   120.5900 hc         1 TXX       0.053700
    186 H30B       126.1970    84.8280   119.0670 hc         1 TXX       0.053700
    187 H26        124.4520    77.7810   116.4980 h4         1 TXX       0.171000
    188 H60        123.2150    76.8970   118.4400 h1         1 TXX       0.085700
    189 H59        122.0550    75.5250   122.1030 hc         1 TXX       0.086200
    190 H59A       122.3280    77.2010   122.5420 hc         1 TXX       0.086200
    191 H65        127.6650    74.1570   123.4610 h4         1 TXX       0.169000
    192 HN17       127.4180    73.3100   125.0810 hn         1 TXX       0.342500
    193 H68        126.5180    71.4890   128.7480 ha         1 TXX       0.194000
    194 H68A       125.1380    72.3360   127.8980 ha         1 TXX       0.194000
    195 HN18       128.3100    71.1070   128.5780 hn         1 TXX       0.355500
    196 H71        132.3620    70.5260   127.6890 ha         1 TXX       0.189000
    197 H71A       131.3910    71.4780   126.4580 ha         1 TXX       0.189000
    198 HN19       131.4100    69.0210   130.8180 hn         1 TXX       0.322500
    199 HN1A       132.2490    69.5980   129.3940 hn         1 TXX       0.322500
@<TRIPOS>BOND
     1     1     2 2   
     2     2     3 1   
     3     2    87 1   
     4     3     4 ar  
     5     3     5 ar  
     6     4     6 ar  
     7     5     7 ar  
     8     5   115 1   
     9     6     8 1   
    10     6     9 ar  
    11     7     9 ar  
    12     7    12 1   
    13     8    10 1   
    14     8    11 1   
    15     8   116 1   
    16     9    14 1   
    17    10   117 1   
    18    11    16 1   
    19    11    17 1   
    20    11   118 1   
    21    12    13 1   
    22    12    15 1   
    23    12   119 1   
    24    13   120 1   
    25    14    16 2   
    26    14   121 1   
    27    15   122 1   
    28    15   123 1   
    29    15   124 1   
    30    16   125 1   
    31    17    18 1   
    32    17   126 1   
    33    18    19 1   
    34    18    21 1   
    35    18   127 1   
    36    19    20 2   
    37    19    25 1   
    38    21    22 1   
    39    21    23 1   
    40    21   128 1   
    41    22    24 1   
    42    22   129 1   
    43    22   130 1   
    44    23   131 1   
    45    23   132 1   
    46    23   133 1   
    47    24   134 1   
    48    24   135 1   
    49    24   136 1   
    50    25    26 1   
    51    25   137 1   
    52    26    27 1   
    53    26    29 1   
    54    26   138 1   
    55    27    28 2   
    56    27    30 1   
    57    29   139 1   
    58    29   140 1   
    59    29   141 1   
    60    30    31 1   
    61    30   142 1   
    62    31    32 2   
    63    31    33 1   
    64    32   143 1   
    65    32   144 1   
    66    33    34 2   
    67    33    35 1   
    68    35    36 1   
    69    35   145 1   
    70    36    37 1   
    71    36    39 1   
    72    36   146 1   
    73    37    38 2   
    74    37    40 1   
    75    39   147 1   
    76    39   148 1   
    77    39   149 1   
    78    40    41 1   
    79    40   150 1   
    80    41    42 1   
    81    41    43 1   
    82    41    91 1   
    83    42    97 1   
    84    42   151 1   
    85    42   152 1   
    86    43    44 2   
    87    43    49 1   
    88    44    45 1   
    89    45    46 1   
    90    45    48 2   
    91    46    47 2   
    92    46    50 1   
    93    48    49 1   
    94    48   153 1   
    95    50    51 1   
    96    50   154 1   
    97    51    52 1   
    98    51    54 1   
    99    51   155 1   
   100    52    53 2   
   101    52    57 1   
   102    54    55 1   
   103    54    56 1   
   104    54   156 1   
   105    55   157 1   
   106    56   158 1   
   107    56   159 1   
   108    56   160 1   
   109    57    58 1   
   110    57   161 1   
   111    58    59 2   
   112    58    61 1   
   113    59    60 1   
   114    59   162 1   
   115    60   163 1   
   116    60   164 1   
   117    60   165 1   
   118    61    62 2   
   119    61    67 1   
   120    62    63 1   
   121    63    64 1   
   122    63    66 1   
   123    63   166 1   
   124    64    65 2   
   125    64    68 1   
   126    66    67 1   
   127    66   167 1   
   128    66   168 1   
   129    68    69 1   
   130    68   170 1   
   131    69    70 1   
   132    69    71 1   
   133    69   169 1   
   134    70    77 2   
   135    70    82 1   
   136    71    72 1   
   137    71    73 1   
   138    71    74 1   
   139    72   171 1   
   140    73   172 1   
   141    73   173 1   
   142    73   174 1   
   143    74    75 1   
   144    74    76 1   
   145    74   175 1   
   146    75   176 1   
   147    76   177 1   
   148    76   178 1   
   149    76   179 1   
   150    77    78 1   
   151    78    79 1   
   152    78    81 2   
   153    79    80 2   
   154    79    83 1   
   155    81    82 1   
   156    81   180 1   
   157    83    84 1   
   158    83   181 1   
   159    84    85 1   
   160    84    86 1   
   161    84   182 1   
   162    85    89 2   
   163    85    93 1   
   164    86    87 1   
   165    86    88 1   
   166    86   183 1   
   167    88   184 1   
   168    88   185 1   
   169    88   186 1   
   170    89    90 1   
   171    90    91 1   
   172    90    92 2   
   173    91    94 1   
   174    91   188 1   
   175    92    93 1   
   176    92   187 1   
   177    94    95 2   
   178    95    96 1   
   179    95    97 1   
   180    96    98 2   
   181    96   103 1   
   182    97   189 1   
   183    97   190 1   
   184    98    99 1   
   185    99   100 1   
   186    99   102 2   
   187   100   101 2   
   188   100   104 1   
   189   102   103 1   
   190   102   191 1   
   191   104   105 1   
   192   104   192 1   
   193   105   106 2   
   194   105   107 1   
   195   106   193 1   
   196   106   194 1   
   197   107   108 2   
   198   107   109 1   
   199   109   110 1   
   200   109   195 1   
   201   110   111 2   
   202   110   112 1   
   203   111   196 1   
   204   111   197 1   
   205   112   113 2   
   206   112   114 1   
   207   114   198 1   
   208   114   199 1   
@<TRIPOS>SUBSTRUCTURE
     1 TXX         1 TEMP              0 ****  ****    0 ROOT
