@<TRIPOS>MOLECULE
TXX
  199   208     1     0     0
SMALL
abcg2


@<TRIPOS>ATOM
      1 O9         122.2420    82.3260   118.8480 o          1 TXX      -0.487000
      2 C31        122.6980    83.1700   118.1210 c          1 TXX       0.514600
      3 C32        121.8760    83.8900   117.1060 ca         1 TXX       0.283500
      4 N9         122.4530    84.8570   116.4000 nb         1 TXX      -0.637000
      5 C33        120.5570    83.5060   116.9240 ca         1 TXX      -0.083000
      6 C34        121.7470    85.4440   115.4560 ca         1 TXX       0.322300
      7 C36        119.8030    84.1130   115.9270 ca         1 TXX      -0.068300
      8 C35        122.4670    86.4520   114.5950 c6         1 TXX       0.126000
      9 C37        120.4210    85.0990   115.1520 ca         1 TXX      -0.047800
     10 O10        123.0860    85.7850   113.5070 oh         1 TXX      -0.698000
     11 C39        121.5200    87.5180   114.0550 c6         1 TXX       0.207700
     12 C38        118.3550    83.7150   115.7180 c3         1 TXX       0.227600
     13 O11        118.0640    82.4550   116.2560 oh         1 TXX      -0.680000
     14 C41        119.7690    85.7760   114.0330 ce         1 TXX      -0.135200
     15 C40        117.4380    84.7370   116.3780 c3         1 TXX      -0.090100
     16 C42        120.2840    86.8800   113.4920 c2         1 TXX      -0.206200
     17 N10        121.1150    88.4270   115.1250 n7         1 TXX      -0.896400
     18 C43        122.1680    89.2850   115.6440 c3         1 TXX       0.097500
     19 C44        122.6540    88.8170   117.0190 c          1 TXX       0.601100
     20 O12        123.7320    89.1880   117.4670 o          1 TXX      -0.625100
     21 C45        121.7640    90.7730   115.7090 c3         1 TXX      -0.071700
     22 C46        120.5450    91.0250   116.6030 c3         1 TXX      -0.074400
     23 C47        121.5760    91.3260   114.2980 c3         1 TXX      -0.093100
     24 C48        120.2450    92.5030   116.8180 c3         1 TXX      -0.090100
     25 N11        121.8050    88.0120   117.6660 ns         1 TXX      -0.482900
     26 C49        122.0500    87.4570   118.9710 c3         1 TXX       0.046700
     27 C50        120.9830    86.3990   119.2390 c          1 TXX       0.595100
     28 O13        119.8850    86.4520   118.7190 o          1 TXX      -0.589100
     29 C51        121.9720    88.5110   120.0810 c3         1 TXX      -0.111100
     30 N12        121.3590    85.4570   120.1350 ns         1 TXX      -0.411100
     31 C52        120.5990    84.4160   120.6650 ce         1 TXX      -0.034600
     32 C53        119.2760    84.2750   120.5790 c2         1 TXX      -0.321000
     33 C54        121.4960    83.4540   121.4060 c          1 TXX       0.607300
     34 O14        122.6070    83.8230   121.7630 o          1 TXX      -0.637100
     35 N13        121.0270    82.2200   121.6160 ns         1 TXX      -0.469900
     36 C55        121.8700    81.1450   122.1090 c3         1 TXX       0.044700
     37 C56        121.4670    79.8890   121.3370 c          1 TXX       0.585100
     38 O15        120.3430    79.4290   121.4650 o          1 TXX      -0.620100
     39 C57        121.7160    80.9240   123.6080 c3         1 TXX      -0.100100
     40 N15        122.4150    79.3680   120.5410 ns         1 TXX      -0.480900
     41 C61        122.1940    78.2560   119.6190 c6         1 TXX       0.090100
     42 C62        121.6590    77.0110   120.3440 c6         1 TXX      -0.091400
     43 C1         121.2500    78.6990   118.5220 cc         1 TXX       0.392700
     44 N1         121.6100    79.2270   117.3990 nd         1 TXX      -0.625000
     45 C2         120.5380    79.6000   116.6470 cd         1 TXX       0.201500
     46 C4         120.7010    80.2770   115.3410 c          1 TXX       0.545600
     47 O1         119.7350    80.7890   114.7750 o          1 TXX      -0.648100
     48 C3         119.3220    79.3300   117.1980 cc         1 TXX      -0.224000
     49 S1         119.5290    78.6120   118.7210 ss         1 TXX       0.095600
     50 N2         121.9390    80.2930   114.8390 ns         1 TXX      -0.464900
     51 C5         122.2550    80.9760   113.6120 c3         1 TXX       0.021700
     52 C6         123.3450    80.2100   112.8680 c          1 TXX       0.604100
     53 O2         123.8990    79.2390   113.3450 o          1 TXX      -0.600100
     54 C7         122.6470    82.4410   113.8940 c3         1 TXX       0.165300
     55 O3         122.5380    83.1550   112.6850 oh         1 TXX      -0.698000
     56 C8         124.0250    82.5500   114.5220 c3         1 TXX      -0.141100
     57 N3         123.6090    80.7200   111.6410 ns         1 TXX      -0.411100
     58 C11        124.5670    80.2000   110.7590 ce         1 TXX      -0.058000
     59 C9         124.5430    78.9330   110.3250 c2         1 TXX      -0.156200
     60 C10        123.4950    77.9220   110.6080 c3         1 TXX      -0.058900
     61 C13        125.5810    81.1550   110.3000 ce         1 TXX       0.526500
     62 N4         125.7580    82.3000   110.8150 n2         1 TXX      -0.596900
     63 C15        126.7210    83.0900   110.0760 c5         1 TXX       0.024500
     64 C14        127.5600    84.0120   110.9470 c          1 TXX       0.616100
     65 O4         128.6650    84.3670   110.5720 o          1 TXX      -0.601100
     66 C12        127.6200    82.1710   109.2400 c5         1 TXX       0.042600
     67 S2         126.5560    80.7540   108.8730 ss         1 TXX      -0.353200
     68 N5         126.9880    84.4260   112.0900 ns         1 TXX      -0.481900
     69 C16        127.6850    85.2960   113.0080 c3         1 TXX       0.049400
     70 C21        128.2770    84.4630   114.1130 cc         1 TXX       0.383700
     71 C17        126.7950    86.4430   113.5490 c3         1 TXX       0.206000
     72 O5         125.6980    85.9090   114.2700 oh         1 TXX      -0.706000
     73 C18        127.6360    87.3490   114.4430 c3         1 TXX      -0.120100
     74 C19        126.1730    87.2110   112.3630 c3         1 TXX       0.180300
     75 O6         127.2330    87.5610   111.5010 oh         1 TXX      -0.662000
     76 C20        125.3760    88.4400   112.7780 c3         1 TXX      -0.125100
     77 N6         127.6290    84.0230   115.1440 nd         1 TXX      -0.667000
     78 C22        128.4220    83.2490   115.9420 cd         1 TXX       0.216500
     79 C24        127.9070    82.6050   117.1740 c          1 TXX       0.535600
     80 O7         128.6390    81.9560   117.9010 o          1 TXX      -0.588100
     81 C23        129.7010    83.0910   115.5070 cc         1 TXX      -0.213000
     82 S3         129.9200    83.9450   114.0520 ss         1 TXX       0.077600
     83 N8         126.5870    82.7760   117.3970 ns         1 TXX      -0.498900
     84 C28        125.9130    82.1740   118.5180 c3         1 TXX       0.067400
     85 C27        125.3640    80.8230   118.1390 cc         1 TXX       0.395700
     86 C29        124.8750    83.1170   119.1320 c3         1 TXX       0.173300
     87 O8         123.9640    83.5610   118.1150 os         1 TXX      -0.433100
     88 C30        125.5240    84.3520   119.7240 c3         1 TXX      -0.097100
     89 N7         124.6430    80.0670   118.9010 nd         1 TXX      -0.658000
     90 C25        124.3520    78.8750   118.3030 cd         1 TXX       0.315300
     91 C60        123.5640    77.8210   119.0280 c6         1 TXX       0.116200
     92 C26        124.8950    78.7100   117.0700 cc         1 TXX      -0.249000
     93 S4         125.7800    80.1020   116.6310 ss         1 TXX       0.040600
     94 N14        124.4520    77.2470   120.0220 n2         1 TXX      -0.604900
     95 C58        124.0060    76.7380   121.0920 ce         1 TXX       0.403300
     96 C63        125.0150    76.2090   122.0160 cc         1 TXX       0.358100
     97 C59        122.5710    76.6260   121.4920 c6         1 TXX      -0.147700
     98 N16        124.7580    75.6080   123.1300 nd         1 TXX      -0.584000
     99 C64        125.9030    75.2250   123.7580 cd         1 TXX       0.222500
    100 C66        125.7830    74.5510   125.0810 c          1 TXX       0.541600
    101 O16        124.7780    74.6700   125.7530 o          1 TXX      -0.551100
    102 C65        127.0560    75.5580   123.1040 cc         1 TXX      -0.270000
    103 S5         126.6980    76.3700   121.6510 ss         1 TXX       0.114600
    104 N17        126.8690    73.8230   125.4390 ns         1 TXX      -0.410100
    105 C67        127.1180    73.1920   126.6530 ce         1 TXX      -0.033600
    106 C68        126.3070    73.1500   127.7140 c2         1 TXX      -0.323000
    107 C69        128.5040    72.6000   126.6470 c          1 TXX       0.604300
    108 O17        129.3190    72.9830   125.8250 o          1 TXX      -0.607100
    109 N18        128.7510    71.6540   127.5730 ns         1 TXX      -0.395100
    110 C70        129.9580    71.0080   127.8310 ce         1 TXX      -0.039600
    111 C71        131.1010    71.1360   127.1540 c2         1 TXX      -0.324000
    112 C72        129.7920    70.0580   128.9920 c          1 TXX       0.600300
    113 O18        128.6670    69.7070   129.3210 o          1 TXX      -0.615100
    114 N19        130.9020    69.6440   129.6060 nt         1 TXX      -0.590000
    115 H33        120.1260    82.7320   117.5420 ha         1 TXX       0.157000
    116 H35        123.2410    86.9210   115.2100 h1         1 TXX       0.072700
    117 HO10       124.0430    85.7460   113.6990 ho         1 TXX       0.489000
    118 H39        122.0500    88.0560   113.2560 h1         1 TXX       0.045700
    119 H38        118.1510    83.7170   114.6390 h1         1 TXX       0.038700
    120 HO11       118.5620    81.7910   115.7460 ho         1 TXX       0.481000
    121 H41        118.8500    85.3650   113.6360 ha         1 TXX       0.190000
    122 H40        116.3930    84.4820   116.1980 hc         1 TXX       0.048033
    123 H40A       117.6080    84.7680   117.4550 hc         1 TXX       0.048033
    124 H40B       117.6130    85.7370   115.9820 hc         1 TXX       0.048033
    125 H42        119.7810    87.3680   112.6660 ha         1 TXX       0.182000
    126 HN10       120.3180    88.9660   114.8170 hn         1 TXX       0.441000
    127 H43        123.0530    89.2440   114.9940 h1         1 TXX       0.061700
    128 H45        122.6160    91.2950   116.1560 hc         1 TXX       0.073700
    129 H46        119.6590    90.5390   116.1830 hc         1 TXX       0.045200
    130 H46A       120.7060    90.5610   117.5800 hc         1 TXX       0.045200
    131 H47        121.4410    92.4070   114.3120 hc         1 TXX       0.035033
    132 H47A       122.4490    91.1170   113.6770 hc         1 TXX       0.035033
    133 H47B       120.7030    90.8990   113.8000 hc         1 TXX       0.035033
    134 H48        119.4310    92.6300   117.5320 hc         1 TXX       0.033367
    135 H48A       121.1160    93.0280   117.2140 hc         1 TXX       0.033367
    136 H48B       119.9480    93.0030   115.8970 hc         1 TXX       0.033367
    137 HN11       120.9690    87.7440   117.1620 hn         1 TXX       0.361500
    138 H49        123.0410    86.9920   118.9900 h1         1 TXX       0.076700
    139 H51        122.1540    88.0630   121.0580 hc         1 TXX       0.053033
    140 H51A       122.7250    89.2790   119.9190 hc         1 TXX       0.053033
    141 H51B       120.9900    88.9830   120.0930 hc         1 TXX       0.053033
    142 HN12       122.3110    85.4820   120.4780 hn         1 TXX       0.345500
    143 H53        118.7780    83.4440   121.0560 ha         1 TXX       0.189500
    144 H53A       118.6450    84.9750   120.0590 ha         1 TXX       0.189500
    145 HN13       120.1230    81.9640   121.2520 hn         1 TXX       0.337500
    146 H55        122.9070    81.4070   121.8920 h1         1 TXX       0.083700
    147 H57        122.3560    80.1070   123.9440 hc         1 TXX       0.052700
    148 H57A       122.0070    81.8240   124.1470 hc         1 TXX       0.052700
    149 H57B       120.6860    80.6840   123.8660 hc         1 TXX       0.052700
    150 HN15       123.2450    79.9280   120.3630 hn         1 TXX       0.364500
    151 H62        121.6100    76.2000   119.6130 hc         1 TXX       0.069700
    152 H62A       120.6480    77.1540   120.7190 hc         1 TXX       0.069700
    153 H3         118.3410    79.5180   116.7890 h4         1 TXX       0.182000
    154 HN2        122.6760    79.8260   115.3490 hn         1 TXX       0.357500
    155 H5         121.3580    80.9850   112.9870 h1         1 TXX       0.109700
    156 H7         121.9030    82.8040   114.6090 h1         1 TXX       0.046700
    157 HO3        122.7020    84.0970   112.8800 ho         1 TXX       0.491000
    158 H8         124.2280    83.5730   114.8300 hc         1 TXX       0.049700
    159 H8A        124.0930    81.9280   115.4130 hc         1 TXX       0.049700
    160 H8B        124.8130    82.2460   113.8300 hc         1 TXX       0.049700
    161 HN3        123.2560    81.6530   111.4550 hn         1 TXX       0.358500
    162 H9         125.3680    78.6000   109.7040 ha         1 TXX       0.189000
    163 H10        123.3240    77.3120   109.7210 hc         1 TXX       0.053700
    164 H10A       123.8110    77.2440   111.4030 hc         1 TXX       0.053700
    165 H10B       122.5490    78.3700   110.9080 hc         1 TXX       0.053700
    166 H15        126.1540    83.7480   109.4020 h1         1 TXX       0.099700
    167 H12        128.4960    81.8340   109.7930 h1         1 TXX       0.096700
    168 H12A       127.9440    82.6370   108.3130 h1         1 TXX       0.096700
    169 H16        128.5030    85.7550   112.4550 h1         1 TXX       0.118700
    170 HN5        126.1150    84.0030   112.3710 hn         1 TXX       0.349500
    171 HO5        126.0310    85.3230   114.9690 ho         1 TXX       0.493000
    172 H18        127.0240    88.1420   114.8710 hc         1 TXX       0.054700
    173 H18A       128.0730    86.7960   115.2750 hc         1 TXX       0.054700
    174 H18B       128.4500    87.8100   113.8840 hc         1 TXX       0.054700
    175 H19        125.4890    86.5160   111.8580 h1         1 TXX       0.044700
    176 HO6        126.8590    87.9650   110.7120 ho         1 TXX       0.452000
    177 H20        124.8460    88.8420   111.9120 hc         1 TXX       0.045367
    178 H20A       124.6260    88.2130   113.5340 hc         1 TXX       0.045367
    179 H20B       126.0200    89.2280   113.1690 hc         1 TXX       0.045367
    180 H23        130.4970    82.5260   115.9650 h4         1 TXX       0.185000
    181 HN8        126.0460    83.3060   116.7270 hn         1 TXX       0.350500
    182 H28        126.6560    82.0010   119.3020 h1         1 TXX       0.106700
    183 H29        124.3390    82.5710   119.9080 h1         1 TXX       0.094700
    184 H30        124.7710    84.9960   120.1750 hc         1 TXX       0.053700
    185 H30A       126.2260    84.0630   120.5060 hc         1 TXX       0.053700
    186 H30B       126.0670    84.9280   118.9740 hc         1 TXX       0.053700
    187 H26        124.8010    77.8620   116.4100 h4         1 TXX       0.171000
    188 H60        123.3460    77.0380   118.2940 h1         1 TXX       0.085700
    189 H59        122.3640    75.6030   121.8120 hc         1 TXX       0.086200
    190 H59A       122.4010    77.2520   122.3720 hc         1 TXX       0.086200
    191 H65        128.0800    75.3940   123.4060 h4         1 TXX       0.169000
    192 HN17       127.6320    73.7510   124.7800 hn         1 TXX       0.342500
    193 H68        126.6250    72.6860   128.6360 ha         1 TXX       0.194000
    194 H68A       125.3260    73.5920   127.7140 ha         1 TXX       0.194000
    195 HN18       127.9820    71.3040   128.1290 hn         1 TXX       0.355500
    196 H71        131.9650    70.5510   127.4290 ha         1 TXX       0.189000
    197 H71A       131.2120    71.7910   126.3070 ha         1 TXX       0.189000
    198 HN19       130.8270    69.0000   130.3770 hn         1 TXX       0.322500
    199 HN1A       131.8080    70.0380   129.4260 hn         1 TXX       0.322500
@<TRIPOS>BOND
     1     1     2 2   
     2     2     3 1   
     3     2    87 1   
     4     3     4 ar  
     5     3     5 ar  
     6     4     6 ar  
     7     5     7 ar  
     8     5   115 1   
     9     6     8 1   
    10     6     9 ar  
    11     7     9 ar  
    12     7    12 1   
    13     8    10 1   
    14     8    11 1   
    15     8   116 1   
    16     9    14 1   
    17    10   117 1   
    18    11    16 1   
    19    11    17 1   
    20    11   118 1   
    21    12    13 1   
    22    12    15 1   
    23    12   119 1   
    24    13   120 1   
    25    14    16 2   
    26    14   121 1   
    27    15   122 1   
    28    15   123 1   
    29    15   124 1   
    30    16   125 1   
    31    17    18 1   
    32    17   126 1   
    33    18    19 1   
    34    18    21 1   
    35    18   127 1   
    36    19    20 2   
    37    19    25 1   
    38    21    22 1   
    39    21    23 1   
    40    21   128 1   
    41    22    24 1   
    42    22   129 1   
    43    22   130 1   
    44    23   131 1   
    45    23   132 1   
    46    23   133 1   
    47    24   134 1   
    48    24   135 1   
    49    24   136 1   
    50    25    26 1   
    51    25   137 1   
    52    26    27 1   
    53    26    29 1   
    54    26   138 1   
    55    27    28 2   
    56    27    30 1   
    57    29   139 1   
    58    29   140 1   
    59    29   141 1   
    60    30    31 1   
    61    30   142 1   
    62    31    32 2   
    63    31    33 1   
    64    32   143 1   
    65    32   144 1   
    66    33    34 2   
    67    33    35 1   
    68    35    36 1   
    69    35   145 1   
    70    36    37 1   
    71    36    39 1   
    72    36   146 1   
    73    37    38 2   
    74    37    40 1   
    75    39   147 1   
    76    39   148 1   
    77    39   149 1   
    78    40    41 1   
    79    40   150 1   
    80    41    42 1   
    81    41    43 1   
    82    41    91 1   
    83    42    97 1   
    84    42   151 1   
    85    42   152 1   
    86    43    44 2   
    87    43    49 1   
    88    44    45 1   
    89    45    46 1   
    90    45    48 2   
    91    46    47 2   
    92    46    50 1   
    93    48    49 1   
    94    48   153 1   
    95    50    51 1   
    96    50   154 1   
    97    51    52 1   
    98    51    54 1   
    99    51   155 1   
   100    52    53 2   
   101    52    57 1   
   102    54    55 1   
   103    54    56 1   
   104    54   156 1   
   105    55   157 1   
   106    56   158 1   
   107    56   159 1   
   108    56   160 1   
   109    57    58 1   
   110    57   161 1   
   111    58    59 2   
   112    58    61 1   
   113    59    60 1   
   114    59   162 1   
   115    60   163 1   
   116    60   164 1   
   117    60   165 1   
   118    61    62 2   
   119    61    67 1   
   120    62    63 1   
   121    63    64 1   
   122    63    66 1   
   123    63   166 1   
   124    64    65 2   
   125    64    68 1   
   126    66    67 1   
   127    66   167 1   
   128    66   168 1   
   129    68    69 1   
   130    68   170 1   
   131    69    70 1   
   132    69    71 1   
   133    69   169 1   
   134    70    77 2   
   135    70    82 1   
   136    71    72 1   
   137    71    73 1   
   138    71    74 1   
   139    72   171 1   
   140    73   172 1   
   141    73   173 1   
   142    73   174 1   
   143    74    75 1   
   144    74    76 1   
   145    74   175 1   
   146    75   176 1   
   147    76   177 1   
   148    76   178 1   
   149    76   179 1   
   150    77    78 1   
   151    78    79 1   
   152    78    81 2   
   153    79    80 2   
   154    79    83 1   
   155    81    82 1   
   156    81   180 1   
   157    83    84 1   
   158    83   181 1   
   159    84    85 1   
   160    84    86 1   
   161    84   182 1   
   162    85    89 2   
   163    85    93 1   
   164    86    87 1   
   165    86    88 1   
   166    86   183 1   
   167    88   184 1   
   168    88   185 1   
   169    88   186 1   
   170    89    90 1   
   171    90    91 1   
   172    90    92 2   
   173    91    94 1   
   174    91   188 1   
   175    92    93 1   
   176    92   187 1   
   177    94    95 2   
   178    95    96 1   
   179    95    97 1   
   180    96    98 2   
   181    96   103 1   
   182    97   189 1   
   183    97   190 1   
   184    98    99 1   
   185    99   100 1   
   186    99   102 2   
   187   100   101 2   
   188   100   104 1   
   189   102   103 1   
   190   102   191 1   
   191   104   105 1   
   192   104   192 1   
   193   105   106 2   
   194   105   107 1   
   195   106   193 1   
   196   106   194 1   
   197   107   108 2   
   198   107   109 1   
   199   109   110 1   
   200   109   195 1   
   201   110   111 2   
   202   110   112 1   
   203   111   196 1   
   204   111   197 1   
   205   112   113 2   
   206   112   114 1   
   207   114   198 1   
   208   114   199 1   
@<TRIPOS>SUBSTRUCTURE
     1 TXX         1 TEMP              0 ****  ****    0 ROOT
