@<TRIPOS>MOLECULE
TXY
   26    26     1     0     0
SMALL
bcc


@<TRIPOS>ATOM
      1 N           -4.3280    -4.6270   -17.9220 n8         1 TXY      -0.884800
      2 CA          -5.5920    -3.9250   -17.7740 c3         1 TXY       0.017500
      3 C           -5.6630    -2.9020   -16.6100 c          1 TXY       0.901600
      4 O           -4.8850    -3.0790   -15.6520 o          1 TXY      -0.836800
      5 CB          -6.7310    -4.9430   -17.5840 c3         1 TXY      -0.023200
      6 CG          -6.9820    -5.8250   -18.7640 c2         1 TXY      -0.060400
      7 CD1         -6.7350    -7.1410   -18.7790 ce         1 TXY      -0.157000
      8 CD2         -7.6670    -5.2270   -19.9630 c6         1 TXY      -0.080200
      9 CE1         -7.0720    -7.9780   -19.9240 ce         1 TXY      -0.236000
     10 CE2         -7.3130    -5.9270   -21.2700 c6         1 TXY       0.197300
     11 CZ          -7.4000    -7.4240   -21.1000 c2         1 TXY       0.070900
     12 OE2         -8.1540    -5.5290   -22.3240 oh         1 TXY      -0.588800
     13 OZ          -7.7060    -8.0930   -22.2240 oh         1 TXY      -0.481100
     14 OXT         -6.5290    -2.0090   -16.7180 o          1 TXY      -0.836800
     15 H1          -3.6060    -3.9500   -18.1390 hn         1 TXY       0.325800
     16 H2          -4.0690    -4.9870   -17.0100 hn         1 TXY       0.325800
     17 H4          -5.7790    -3.3800   -18.7070 h1         1 TXY       0.035700
     18 H6          -7.6480    -4.3890   -17.3570 hc         1 TXY       0.051200
     19 H7          -6.5100    -5.5560   -16.7030 hc         1 TXY       0.051200
     20 H8          -6.2990    -7.6230   -17.9100 ha         1 TXY       0.126000
     21 H9          -7.4350    -4.1620   -20.0580 hc         1 TXY       0.058200
     22 H10         -8.7540    -5.2930   -19.8130 hc         1 TXY       0.058200
     23 H11         -7.0330    -9.0560   -19.8140 ha         1 TXY       0.114000
     24 H12         -6.2590    -5.6980   -21.5070 h1         1 TXY       0.048700
     25 H13         -8.0330    -4.5830   -22.4540 ho         1 TXY       0.399000
     26 H14         -7.6860    -9.0430   -22.0530 ho         1 TXY       0.403000
@<TRIPOS>BOND
     1     1     2 1   
     2     1    15 1   
     3     1    16 1   
     4     2     3 1   
     5     2     5 1   
     6     2    17 1   
     7     3     4 1   
     8     3    14 1   
     9     5     6 1   
    10     5    18 1   
    11     5    19 1   
    12     6     7 2   
    13     6     8 1   
    14     7     9 1   
    15     7    20 1   
    16     8    10 1   
    17     8    21 1   
    18     8    22 1   
    19     9    11 2   
    20     9    23 1   
    21    10    11 1   
    22    10    12 1   
    23    10    24 1   
    24    11    13 1   
    25    12    25 1   
    26    13    26 1   
@<TRIPOS>SUBSTRUCTURE
     1 TXY         1 TEMP              0 ****  ****    0 ROOT
