@<TRIPOS>MOLECULE
TXY
   26    26     1     0     0
SMALL
No Charge or Current Charge


@<TRIPOS>ATOM
      1 N           -4.3060    -4.6980   -17.9340 n8         1 TXY      -0.884800
      2 CA          -5.6040    -3.9420   -17.7420 c3         1 TXY       0.017500
      3 C           -5.6320    -2.8540   -16.5830 c          1 TXY       0.901600
      4 O           -5.2610    -3.1780   -15.4580 o          1 TXY      -0.836800
      5 CB          -6.7970    -4.9240   -17.5730 c3         1 TXY      -0.023200
      6 CG          -7.0310    -5.8400   -18.7670 c2         1 TXY      -0.060400
      7 CD1         -6.7120    -7.1540   -18.7870 ce         1 TXY      -0.157000
      8 CD2         -7.7430    -5.2130   -19.9700 c6         1 TXY      -0.080200
      9 CE1         -6.9990    -7.9950   -19.9520 ce         1 TXY      -0.236000
     10 CE2         -7.3870    -5.9120   -21.3140 c6         1 TXY       0.197300
     11 CZ          -7.3200    -7.4450   -21.1390 c2         1 TXY       0.070900
     12 OE2         -8.3340    -5.5170   -22.3220 oh         1 TXY      -0.588800
     13 OZ          -7.5400    -8.1830   -22.2450 oh         1 TXY      -0.481100
     14 OXT         -5.9140    -1.6960   -16.8710 o          1 TXY      -0.836800
     15 H1          -3.5470    -4.0280   -18.0970 hn         1 TXY       0.325800
     16 H2          -4.0550    -5.1470   -17.0470 hn         1 TXY       0.325800
     17 H4          -5.7710    -3.3870   -18.6740 h1         1 TXY       0.035700
     18 H6          -7.7070    -4.3410   -17.3840 hc         1 TXY       0.051200
     19 H7          -6.6360    -5.5200   -16.6670 hc         1 TXY       0.051200
     20 H8          -6.2500    -7.6320   -17.9220 ha         1 TXY       0.126000
     21 H9          -7.5050    -4.1430   -20.0460 hc         1 TXY       0.058200
     22 H10         -8.8260    -5.2760   -19.7970 hc         1 TXY       0.058200
     23 H11         -6.9030    -9.0740   -19.8300 ha         1 TXY       0.114000
     24 H12         -6.3790    -5.5790   -21.6060 h1         1 TXY       0.048700
     25 H13         -8.2480    -4.5460   -22.4210 ho         1 TXY       0.399000
     26 H14         -7.4620    -9.1240   -21.9860 ho         1 TXY       0.403000
@<TRIPOS>BOND
     1     1     2 1   
     2     1    15 1   
     3     1    16 1   
     4     2     3 1   
     5     2     5 1   
     6     2    17 1   
     7     3     4 1   
     8     3    14 1   
     9     5     6 1   
    10     5    18 1   
    11     5    19 1   
    12     6     7 2   
    13     6     8 1   
    14     7     9 1   
    15     7    20 1   
    16     8    10 1   
    17     8    21 1   
    18     8    22 1   
    19     9    11 2   
    20     9    23 1   
    21    10    11 1   
    22    10    12 1   
    23    10    24 1   
    24    11    13 1   
    25    12    25 1   
    26    13    26 1   
@<TRIPOS>SUBSTRUCTURE
     1 TXY         1 TEMP              0 ****  ****    0 ROOT
