@<TRIPOS>MOLECULE
TXZ
   37    36     1     0     0
SMALL
abcg2


@<TRIPOS>ATOM
      1 C           23.9630    38.1050   -45.4630 c          1 TXZ       0.739000
      2 N           24.6500    38.6380   -47.7790 ns         1 TXZ      -0.376900
      3 O           24.7720    37.1500   -45.5530 o          1 TXZ      -0.748500
      4 P           20.7050    36.4940   -47.3680 p5         1 TXZ       1.291900
      5 C1          25.4370    39.5400   -48.3850 c          1 TXZ       0.556100
      6 O1          25.3240    40.7620   -48.2220 o          1 TXZ      -0.723100
      7 C2          26.5240    38.9700   -49.2730 c3         1 TXZ      -0.159400
      8 C3          27.8700    38.9460   -48.5340 c3         1 TXZ      -0.075400
      9 C4          29.0270    38.4180   -49.3860 c3         1 TXZ      -0.071400
     10 C5          29.3340    39.2260   -50.6520 c3         1 TXZ      -0.066400
     11 C6          29.6880    40.6780   -50.3570 c3         1 TXZ       0.115600
     12 S6          30.1720    41.5150   -51.9190 sh         1 TXZ      -0.528800
     13 CA          23.6830    38.9400   -46.7410 c3         1 TXZ      -0.047300
     14 CB          22.2400    38.7240   -47.2370 c3         1 TXZ       0.254300
     15 CG          21.8830    39.6790   -48.3690 c3         1 TXZ      -0.110100
     16 O1P         21.0900    35.1350   -47.9400 o          1 TXZ      -0.941833
     17 O2P         20.4980    36.5060   -45.8550 o          1 TXZ      -0.941833
     18 O3P         19.5890    37.2030   -48.1320 o          1 TXZ      -0.941833
     19 O4P         22.1120    37.3720   -47.6590 os         1 TXZ      -0.595400
     20 OXT         23.3390    38.4660   -44.4350 o          1 TXZ      -0.748500
     21 HN          24.8810    37.6610   -47.8730 hn         1 TXZ       0.336500
     22 H2          26.2680    37.9600   -49.6020 hc         1 TXZ       0.041200
     23 H2A         26.5880    39.6060   -50.1570 hc         1 TXZ       0.041200
     24 H3          28.0950    39.9520   -48.1740 hc         1 TXZ       0.054700
     25 H3A         27.7720    38.3140   -47.6480 hc         1 TXZ       0.054700
     26 H4          29.9270    38.3810   -48.7640 hc         1 TXZ       0.029200
     27 H4A         28.8110    37.3860   -49.6810 hc         1 TXZ       0.029200
     28 H5          30.1700    38.7500   -51.1740 hc         1 TXZ       0.043200
     29 H5A         28.4830    39.1930   -51.3370 hc         1 TXZ       0.043200
     30 H6          28.8400    41.2130   -49.9360 h1         1 TXZ       0.066700
     31 H6A         30.5220    40.7350   -49.6570 h1         1 TXZ       0.066700
     32 HS6         30.3530    42.7460   -51.4130 hs         1 TXZ       0.206800
     33 HA          23.7970    39.9930   -46.4860 h1         1 TXZ       0.025700
     34 HB          21.5840    38.9090   -46.3820 h1         1 TXZ       0.056700
     35 HG          20.8620    39.4930   -48.6970 hc         1 TXZ       0.007700
     36 HGA         21.9670    40.7180   -48.0400 hc         1 TXZ       0.007700
     37 HGB         22.5540    39.5310   -49.2180 hc         1 TXZ       0.007700
@<TRIPOS>BOND
     1     1     3 1   
     2     1    13 1   
     3     1    20 1   
     4     2     5 1   
     5     2    13 1   
     6     2    21 1   
     7     4    16 1   
     8     4    17 1   
     9     4    18 1   
    10     4    19 1   
    11     5     6 2   
    12     5     7 1   
    13     7     8 1   
    14     7    22 1   
    15     7    23 1   
    16     8     9 1   
    17     8    24 1   
    18     8    25 1   
    19     9    10 1   
    20     9    26 1   
    21     9    27 1   
    22    10    11 1   
    23    10    28 1   
    24    10    29 1   
    25    11    12 1   
    26    11    30 1   
    27    11    31 1   
    28    12    32 1   
    29    13    14 1   
    30    13    33 1   
    31    14    15 1   
    32    14    19 1   
    33    14    34 1   
    34    15    35 1   
    35    15    36 1   
    36    15    37 1   
@<TRIPOS>SUBSTRUCTURE
     1 TXZ         1 TEMP              0 ****  ****    0 ROOT
