@<TRIPOS>MOLECULE
TXZ
   37    36     1     0     0
SMALL
No Charge or Current Charge


@<TRIPOS>ATOM
      1 C           23.7560    37.8520   -45.1400 c          1 TXZ       0.739000
      2 N           24.8060    38.5480   -47.3130 ns         1 TXZ      -0.376900
      3 O           24.4740    36.8590   -45.1840 o          1 TXZ      -0.748500
      4 P           20.8390    36.6990   -48.2170 p5         1 TXZ       1.291900
      5 C1          25.4960    39.5150   -48.0080 c          1 TXZ       0.556100
      6 O1          25.2550    40.7120   -47.9030 o          1 TXZ      -0.723100
      7 C2          26.5820    38.9780   -48.9510 c3         1 TXZ      -0.159400
      8 C3          28.0020    39.2380   -48.3880 c3         1 TXZ      -0.075400
      9 C4          29.1460    38.6000   -49.2160 c3         1 TXZ      -0.071400
     10 C5          29.2660    39.0850   -50.6830 c3         1 TXZ      -0.066400
     11 C6          29.5280    40.5980   -50.8320 c3         1 TXZ       0.115600
     12 S6          29.7810    41.1220   -52.5940 sh         1 TXZ      -0.528800
     13 CA          23.6700    38.7830   -46.3820 c3         1 TXZ      -0.047300
     14 CB          22.2770    38.6410   -47.0550 c3         1 TXZ       0.254300
     15 CG          21.9690    39.7810   -48.0590 c3         1 TXZ      -0.110100
     16 O1P         21.1040    35.2820   -48.5900 o          1 TXZ      -0.941833
     17 O2P         19.8400    36.7260   -47.1140 o          1 TXZ      -0.941833
     18 O3P         20.3050    37.4120   -49.4090 o          1 TXZ      -0.941833
     19 O4P         22.2220    37.3590   -47.7160 os         1 TXZ      -0.595400
     20 OXT         23.2150    38.2280   -44.1080 o          1 TXZ      -0.748500
     21 HN          25.0890    37.5870   -47.4650 hn         1 TXZ       0.336500
     22 H2          26.4580    37.8960   -49.0890 hc         1 TXZ       0.041200
     23 H2A         26.4870    39.4870   -49.9170 hc         1 TXZ       0.041200
     24 H3          28.1670    40.3190   -48.2960 hc         1 TXZ       0.054700
     25 H3A         28.0530    38.8340   -47.3690 hc         1 TXZ       0.054700
     26 H4          30.0970    38.7930   -48.7040 hc         1 TXZ       0.029200
     27 H4A         29.0150    37.5110   -49.2180 hc         1 TXZ       0.029200
     28 H5          30.0920    38.5410   -51.1580 hc         1 TXZ       0.043200
     29 H5A         28.3600    38.8170   -51.2390 hc         1 TXZ       0.043200
     30 H6          28.6780    41.1620   -50.4260 h1         1 TXZ       0.066700
     31 H6A         30.4230    40.8710   -50.2570 h1         1 TXZ       0.066700
     32 HS6         29.9700    42.4390   -52.3280 hs         1 TXZ       0.206800
     33 HA          23.7560    39.8080   -45.9980 h1         1 TXZ       0.025700
     34 HB          21.5200    38.6940   -46.2600 h1         1 TXZ       0.056700
     35 HG          20.9080    39.7970   -48.3280 hc         1 TXZ       0.007700
     36 HGA         22.2000    40.7540   -47.6100 hc         1 TXZ       0.007700
     37 HGB         22.5660    39.6780   -48.9740 hc         1 TXZ       0.007700
@<TRIPOS>BOND
     1     1     3 1   
     2     1    13 1   
     3     1    20 1   
     4     2     5 1   
     5     2    13 1   
     6     2    21 1   
     7     4    16 1   
     8     4    17 1   
     9     4    18 1   
    10     4    19 1   
    11     5     6 2   
    12     5     7 1   
    13     7     8 1   
    14     7    22 1   
    15     7    23 1   
    16     8     9 1   
    17     8    24 1   
    18     8    25 1   
    19     9    10 1   
    20     9    26 1   
    21     9    27 1   
    22    10    11 1   
    23    10    28 1   
    24    10    29 1   
    25    11    12 1   
    26    11    30 1   
    27    11    31 1   
    28    12    32 1   
    29    13    14 1   
    30    13    33 1   
    31    14    15 1   
    32    14    19 1   
    33    14    34 1   
    34    15    35 1   
    35    15    36 1   
    36    15    37 1   
@<TRIPOS>SUBSTRUCTURE
     1 TXZ         1 TEMP              0 ****  ****    0 ROOT
