@<TRIPOS>MOLECULE
TY0
   39    39     1     0     0
SMALL
No Charge or Current Charge


@<TRIPOS>ATOM
      1 N           -2.4960     1.4960    -1.4140 n8         1 TY0      -0.870800
      2 O           -5.1930     0.9910    -0.5250 o          1 TY0      -0.488100
      3 O2           3.6670     0.4710     0.1820 os         1 TY0      -0.351900
      4 O3          -6.1000    -1.6880    -0.0720 oh         1 TY0      -0.565800
      5 C1          -2.0450     0.4000     0.8090 c3         1 TY0      -0.013100
      6 C2          -2.8340     0.3280    -0.5280 c3         1 TY0       0.068500
      7 C           -4.3660     0.1180    -0.2670 c          1 TY0       0.522100
      8 C4          -4.7730    -1.2650     0.3190 c3         1 TY0       0.034400
      9 C5          -0.5280     0.3950     0.6280 ca         1 TY0      -0.107300
     10 C6           2.2900     0.3700     0.3090 ca         1 TY0       0.155100
     11 C7           4.3330    -1.0210    -1.6600 c3         1 TY0      -0.106100
     12 C8           4.6130    -0.5580    -0.2050 c3         1 TY0       0.179800
     13 C9           0.1350    -0.7840     0.2390 ca         1 TY0      -0.085500
     14 C10          0.2260     1.5590     0.8630 ca         1 TY0      -0.085500
     15 C11          1.5320    -0.8000     0.0780 ca         1 TY0      -0.183500
     16 C12          1.6210     1.5410     0.7020 ca         1 TY0      -0.183500
     17 C13          5.9760     0.1710    -0.1620 c3         1 TY0      -0.106100
     18 C14          4.6180    -1.7010     0.8460 c3         1 TY0      -0.106100
     19 H           -2.9990     1.4070    -2.3040 hn         1 TY0       0.350800
     20 H1          -6.2760    -2.5540     0.3560 ho         1 TY0       0.407000
     21 H3          -2.3630     1.2920     1.3640 hc         1 TY0       0.051700
     22 H4          -2.3230    -0.4540     1.4390 hc         1 TY0       0.051700
     23 H5          -2.4990    -0.5780    -1.0530 h1         1 TY0       0.073700
     24 H6          -4.6990    -1.1950     1.4130 h1         1 TY0       0.036200
     25 H7          -4.0320    -2.0030    -0.0130 h1         1 TY0       0.036200
     26 H8           4.1450    -0.1590    -2.3110 hc         1 TY0       0.045478
     27 H9           5.2000    -1.5600    -2.0600 hc         1 TY0       0.045478
     28 H10          3.4800    -1.6990    -1.7360 hc         1 TY0       0.045478
     29 H11         -0.4350    -1.6940     0.0590 ha         1 TY0       0.127000
     30 H12         -0.2690     2.4800     1.1660 ha         1 TY0       0.127000
     31 H13          1.9880    -1.7310    -0.2240 ha         1 TY0       0.137500
     32 H14          2.1940     2.4470     0.8830 ha         1 TY0       0.137500
     33 H15          6.1830     0.5550     0.8440 hc         1 TY0       0.045478
     34 H16          6.7930    -0.5070    -0.4390 hc         1 TY0       0.045478
     35 H17          5.9890     1.0180    -0.8590 hc         1 TY0       0.045478
     36 H18          3.7630    -2.3750     0.7470 hc         1 TY0       0.045478
     37 H19          5.5190    -2.3160     0.7320 hc         1 TY0       0.045478
     38 H20          4.6180    -1.2920     1.8630 hc         1 TY0       0.045478
     39 H2          -2.8790     2.3530    -1.0020 hn         1 TY0       0.350800
@<TRIPOS>BOND
     1     1     6 1   
     2     1    19 1   
     3     1    39 1   
     4     2     7 2   
     5     3    10 1   
     6     3    12 1   
     7     4     8 1   
     8     4    20 1   
     9     5     6 1   
    10     5     9 1   
    11     5    21 1   
    12     5    22 1   
    13     6     7 1   
    14     6    23 1   
    15     7     8 1   
    16     8    24 1   
    17     8    25 1   
    18     9    13 ar  
    19     9    14 ar  
    20    10    15 ar  
    21    10    16 ar  
    22    11    12 1   
    23    11    26 1   
    24    11    27 1   
    25    11    28 1   
    26    12    17 1   
    27    12    18 1   
    28    13    15 ar  
    29    13    29 1   
    30    14    16 ar  
    31    14    30 1   
    32    15    31 1   
    33    16    32 1   
    34    17    33 1   
    35    17    34 1   
    36    17    35 1   
    37    18    36 1   
    38    18    37 1   
    39    18    38 1   
@<TRIPOS>SUBSTRUCTURE
     1 TY0         1 TEMP              0 ****  ****    0 ROOT
