@<TRIPOS>MOLECULE
TY0
   39    39     1     0     0
SMALL
bcc


@<TRIPOS>ATOM
      1 N           -2.6840     1.8430    -0.8030 n8         1 TY0      -0.870800
      2 O           -5.0340     0.9390     0.5650 o          1 TY0      -0.488100
      3 O2           3.5340     0.4480    -0.4690 os         1 TY0      -0.351900
      4 O3          -5.9230    -1.5660     0.3780 oh         1 TY0      -0.565800
      5 C1          -1.9640     0.2320     0.8970 c3         1 TY0      -0.013100
      6 C2          -2.8580     0.4900    -0.3320 c3         1 TY0       0.068500
      7 C           -4.2870     0.1350     0.0610 c          1 TY0       0.522100
      8 C4          -4.6910    -1.2880    -0.2130 c3         1 TY0       0.034400
      9 C5          -0.5020     0.2670     0.5610 ca         1 TY0      -0.107300
     10 C6           2.2370     0.3000    -0.1210 ca         1 TY0       0.155100
     11 C7           4.5630    -1.5810    -1.3730 c3         1 TY0      -0.106100
     12 C8           4.5610    -0.5440    -0.2510 c3         1 TY0       0.179800
     13 C9           0.1650    -0.8920     0.1810 ca         1 TY0      -0.085500
     14 C10          0.2310     1.4500     0.5910 ca         1 TY0      -0.085500
     15 C11          1.5110    -0.8890    -0.1620 ca         1 TY0      -0.183500
     16 C12          1.5770     1.4680     0.2670 ca         1 TY0      -0.183500
     17 C13          5.8510     0.2660    -0.3190 c3         1 TY0      -0.106100
     18 C14          4.4340    -1.1970     1.1200 c3         1 TY0      -0.106100
     19 H           -3.2360     1.9960    -1.6390 hn         1 TY0       0.350800
     20 H1          -6.1510    -2.4770     0.1740 ho         1 TY0       0.407000
     21 H3          -2.2000     0.9810     1.6590 hc         1 TY0       0.051700
     22 H4          -2.2130    -0.7400     1.3300 hc         1 TY0       0.051700
     23 H5          -2.5410    -0.1950    -1.1270 h1         1 TY0       0.073700
     24 H6          -3.8840    -1.9480     0.1380 h1         1 TY0       0.036200
     25 H7          -4.7040    -1.3990    -1.3090 h1         1 TY0       0.036200
     26 H8           4.5960    -1.0960    -2.3490 hc         1 TY0       0.045478
     27 H9           5.4480    -2.2110    -1.2840 hc         1 TY0       0.045478
     28 H10          3.6960    -2.2390    -1.3480 hc         1 TY0       0.045478
     29 H11         -0.3740    -1.8320     0.1490 ha         1 TY0       0.127000
     30 H12         -0.2500     2.3730     0.8900 ha         1 TY0       0.127000
     31 H13          1.9670    -1.8220    -0.4590 ha         1 TY0       0.137500
     32 H14          2.1320     2.3980     0.3090 ha         1 TY0       0.137500
     33 H15          5.8940     1.0120     0.4760 hc         1 TY0       0.045478
     34 H16          6.7150    -0.3900    -0.2130 hc         1 TY0       0.045478
     35 H17          5.9410     0.7790    -1.2780 hc         1 TY0       0.045478
     36 H18          3.5490    -1.8260     1.2130 hc         1 TY0       0.045478
     37 H19          5.3000    -1.8360     1.2950 hc         1 TY0       0.045478
     38 H20          4.4040    -0.4480     1.9130 hc         1 TY0       0.045478
     39 H2          -3.0320     2.4960    -0.1110 hn         1 TY0       0.350800
@<TRIPOS>BOND
     1     1     6 1   
     2     1    19 1   
     3     1    39 1   
     4     2     7 2   
     5     3    10 1   
     6     3    12 1   
     7     4     8 1   
     8     4    20 1   
     9     5     6 1   
    10     5     9 1   
    11     5    21 1   
    12     5    22 1   
    13     6     7 1   
    14     6    23 1   
    15     7     8 1   
    16     8    24 1   
    17     8    25 1   
    18     9    13 ar  
    19     9    14 ar  
    20    10    15 ar  
    21    10    16 ar  
    22    11    12 1   
    23    11    26 1   
    24    11    27 1   
    25    11    28 1   
    26    12    17 1   
    27    12    18 1   
    28    13    15 ar  
    29    13    29 1   
    30    14    16 ar  
    31    14    30 1   
    32    15    31 1   
    33    16    32 1   
    34    17    33 1   
    35    17    34 1   
    36    17    35 1   
    37    18    36 1   
    38    18    37 1   
    39    18    38 1   
@<TRIPOS>SUBSTRUCTURE
     1 TY0         1 TEMP              0 ****  ****    0 ROOT
