@<TRIPOS>MOLECULE
TY1
   34    34     1     0     0
SMALL
abcg2


@<TRIPOS>ATOM
      1 N           18.5860   -18.3640     2.5990 n2         1 TY1      -0.259000
      2 CG          15.7130   -17.5530     3.2900 c2         1 TY1      -0.149000
      3 CL          14.8080   -16.0800     5.5170 cl         1 TY1       1.588000
      4 CZ          16.1830   -18.3370     2.0970 c3         1 TY1      -0.059000
      5 CAA         14.4960   -13.0570     6.0670 c3         1 TY1      -0.226000
      6 CAB         16.4240   -14.2680     7.1070 c3         1 TY1      -0.226000
      7 CAC         14.3120   -13.9280     8.4000 c3         1 TY1      -0.226000
      8 CBL         14.9050   -14.1750     7.0210 c3         1 TY1       0.095000
      9 C           17.7030   -16.4810     1.2360 c2         1 TY1       0.359000
     10 CA          17.5960   -17.9800     1.6090 c3         1 TY1      -0.150000
     11 CD1         14.8360   -16.4800     3.1420 c2         1 TY1       0.019000
     12 CD2         16.1200   -17.8760     4.5840 c2         1 TY1       0.019000
     13 CE1         14.3790   -15.7540     4.2340 c2         1 TY1      -0.847000
     14 CE2         15.6820   -17.1500     5.6820 c2         1 TY1      -0.847000
     15 O           16.8380   -16.0580     0.4430 o          1 TY1      -0.548000
     16 H           18.7890   -19.3520     2.5190 hn         1 TY1       0.041000
     17 HZ          16.1640   -19.4060     2.3340 hc         1 TY1       0.075000
     18 HZA         15.4870   -18.1940     1.2700 hc         1 TY1       0.075000
     19 HAA         14.8370   -12.0970     6.4580 hc         1 TY1       0.082667
     20 HAAA        14.9370   -13.1800     5.0770 hc         1 TY1       0.082667
     21 HAAB        13.4110   -13.0090     5.9600 hc         1 TY1       0.082667
     22 HAB         16.8250   -13.3280     7.4890 hc         1 TY1       0.082667
     23 HABA        16.7380   -15.0650     7.7840 hc         1 TY1       0.082667
     24 HABB        16.8780   -14.4470     6.1320 hc         1 TY1       0.082667
     25 HAC         14.6670   -12.9780     8.8000 hc         1 TY1       0.082667
     26 HACA        13.2220   -13.8850     8.3580 hc         1 TY1       0.082667
     27 HACB        14.5980   -14.7150     9.1000 hc         1 TY1       0.082667
     28 OXT         18.6510   -15.8350     1.7220 o          1 TY1      -0.548000
     29 HA          17.7300   -18.5290     0.6620 h1         1 TY1       0.057000
     30 HD1         14.4920   -16.2100     2.1510 ha         1 TY1       0.139500
     31 HD2         16.7910   -18.7110     4.7360 ha         1 TY1       0.139500
     32 HE1         13.6700   -14.9500     4.0870 h4         1 TY1       0.173000
     33 HE2         16.0060   -17.4250     6.6780 h4         1 TY1       0.173000
     34 OH          14.3240   -15.4360     6.6150 os         1 TY1      -0.614000
@<TRIPOS>BOND
     1     1    10 1   
     2     1    16 1   
     3     2     4 1   
     4     2    11 1   
     5     2    12 1   
     6     3    13 1   
     7     3    14 1   
     8     3    34 1   
     9     4    10 1   
    10     4    17 1   
    11     4    18 1   
    12     5     8 1   
    13     5    19 1   
    14     5    20 1   
    15     5    21 1   
    16     6     8 1   
    17     6    22 1   
    18     6    23 1   
    19     6    24 1   
    20     7     8 1   
    21     7    25 1   
    22     7    26 1   
    23     7    27 1   
    24     8    34 1   
    25     9    10 1   
    26     9    15 1   
    27     9    28 1   
    28    10    29 1   
    29    11    13 1   
    30    11    30 1   
    31    12    14 1   
    32    12    31 1   
    33    13    32 1   
    34    14    33 1   
@<TRIPOS>SUBSTRUCTURE
     1 TY1         1 TEMP              0 ****  ****    0 ROOT
