@<TRIPOS>MOLECULE
TY1
   34    34     1     0     0
SMALL
No Charge or Current Charge


@<TRIPOS>ATOM
      1 N           17.7980   -18.9070     4.6570 n2         1 TY1      -0.259000
      2 CG          15.4260   -17.4480     3.3280 c2         1 TY1      -0.149000
      3 Cl          13.4320   -15.1090     4.4260 cl         1 TY1       1.588000
      4 CZ          16.2560   -18.5870     2.7300 c3         1 TY1      -0.059000
      5 CAA         14.0830   -14.1400     7.3840 c3         1 TY1      -0.226000
      6 CAB         15.0130   -12.5880     5.5540 c3         1 TY1      -0.226000
      7 CAC         16.5520   -14.1320     6.8360 c3         1 TY1      -0.226000
      8 CBL         15.1320   -13.9590     6.2610 c3         1 TY1       0.095000
      9 C           18.5900   -17.4710     2.7890 c          1 TY1       0.359000
     10 CA          17.7340   -18.6750     3.2060 c3         1 TY1      -0.150000
     11 CD1         15.4530   -16.2310     2.7610 c2         1 TY1       0.019000
     12 CD2         14.6840   -17.6680     4.4270 c2         1 TY1       0.019000
     13 CE1         14.7260   -15.1760     3.1850 c2         1 TY1      -0.847000
     14 CE2         13.8880   -16.7450     5.0070 c2         1 TY1      -0.847000
     15 O           18.8640   -17.3040     1.6060 o          1 TY1      -0.548000
     16 H           18.7010   -19.1500     5.0710 hn         1 TY1       0.041000
     17 HZ          15.7690   -19.5490     2.9380 hc         1 TY1       0.075000
     18 HZA         16.2530   -18.5050     1.6360 hc         1 TY1       0.075000
     19 HAA         14.3030   -13.4650     8.2200 hc         1 TY1       0.082667
     20 HAAA        13.0660   -13.9090     7.0470 hc         1 TY1       0.082667
     21 HAAB        14.0990   -15.1650     7.7740 hc         1 TY1       0.082667
     22 HAB         15.3110   -11.7820     6.2360 hc         1 TY1       0.082667
     23 HABA        15.6720   -12.5400     4.6780 hc         1 TY1       0.082667
     24 HABB        13.9880   -12.3710     5.2320 hc         1 TY1       0.082667
     25 HAC         16.7670   -13.3660     7.5910 hc         1 TY1       0.082667
     26 HACA        16.6650   -15.1150     7.3080 hc         1 TY1       0.082667
     27 HACB        17.3060   -14.0480     6.0450 hc         1 TY1       0.082667
     28 OXT         19.1020   -16.7140     3.6080 o          1 TY1      -0.548000
     29 HA          18.1670   -19.5520     2.7080 h1         1 TY1       0.057000
     30 HD1         16.1230   -16.0820     1.9110 ha         1 TY1       0.139500
     31 HD2         14.7480   -18.6540     4.8940 ha         1 TY1       0.139500
     32 HE1         14.7980   -14.2040     2.7100 h4         1 TY1       0.173000
     33 HE2         13.3260   -16.9590     5.9080 h4         1 TY1       0.173000
     34 OH          15.0020   -15.0260     5.2900 os         1 TY1      -0.614000
@<TRIPOS>BOND
     1     1    10 1   
     2     1    16 1   
     3     2     4 1   
     4     2    11 1   
     5     2    12 1   
     6     3    13 1   
     7     3    14 1   
     8     3    34 1   
     9     4    10 1   
    10     4    17 1   
    11     4    18 1   
    12     5     8 1   
    13     5    19 1   
    14     5    20 1   
    15     5    21 1   
    16     6     8 1   
    17     6    22 1   
    18     6    23 1   
    19     6    24 1   
    20     7     8 1   
    21     7    25 1   
    22     7    26 1   
    23     7    27 1   
    24     8    34 1   
    25     9    10 1   
    26     9    15 1   
    27     9    28 1   
    28    10    29 1   
    29    11    13 1   
    30    11    30 1   
    31    12    14 1   
    32    12    31 1   
    33    13    32 1   
    34    14    33 1   
@<TRIPOS>SUBSTRUCTURE
     1 TY1         1 TEMP              0 ****  ****    0 ROOT
