@<TRIPOS>MOLECULE
TY2
   25    25     1     0     0
SMALL
No Charge or Current Charge


@<TRIPOS>ATOM
      1 N            1.5780    27.7590    41.4320 n8         1 TY2      -0.977200
      2 CA           2.0560    29.1910    41.4160 c3         1 TY2       0.018500
      3 C            1.2450    30.1950    40.4950 c          1 TY2       0.728000
      4 O            1.1990    29.9780    39.2890 o          1 TY2      -0.730000
      5 CB           3.5730    29.2320    41.0910 c3         1 TY2      -0.051100
      6 CG           4.1900    30.6030    41.3410 ca         1 TY2      -0.026300
      7 CD1          4.4610    31.0270    42.6550 ca         1 TY2      -0.118000
      8 CD2          4.4950    31.4560    40.2620 ca         1 TY2      -0.114000
      9 CE1          5.0310    32.2890    42.8940 ca         1 TY2      -0.173000
     10 CE2          5.0640    32.7220    40.4870 ca         1 TY2       0.250000
     11 CZ           5.3350    33.1410    41.8180 ca         1 TY2       0.053100
     12 OH           5.8970    34.3670    42.0820 oh         1 TY2      -0.556100
     13 NE2          5.3550    33.5380    39.4130 nv         1 TY2      -1.048000
     14 OXT          0.6140    31.0970    41.0330 o          1 TY2      -0.730000
     15 HN1          1.6070    27.3910    40.4740 hn         1 TY2       0.369500
     16 HA2          2.2540    27.1790    41.9420 hn         1 TY2       0.369500
     17 HB           1.9440    29.5620    42.4440 h1         1 TY2       0.048700
     18 HA1          4.0950    28.4900    41.7090 hc         1 TY2       0.025200
     19 HB2          3.7320    28.9230    40.0500 hc         1 TY2       0.025200
     20 HA           4.2300    30.3740    43.4950 ha         1 TY2       0.102000
     21 HC           4.2840    31.1350    39.2450 ha         1 TY2       0.137000
     22 HD           5.2350    32.5980    43.9170 ha         1 TY2       0.090000
     23 HE21         5.8750    34.3960    39.5870 hn         1 TY2       0.430000
     24 HE22         5.3340    33.1730    38.4630 hn         1 TY2       0.430000
     25 HH           5.9980    34.4600    43.0530 ho         1 TY2       0.446000
@<TRIPOS>BOND
     1     1     2 1   
     2     1    15 1   
     3     1    16 1   
     4     2     3 1   
     5     2     5 1   
     6     2    17 1   
     7     3     4 1   
     8     3    14 1   
     9     5     6 1   
    10     5    18 1   
    11     5    19 1   
    12     6     7 ar  
    13     6     8 ar  
    14     7     9 ar  
    15     7    20 1   
    16     8    10 ar  
    17     8    21 1   
    18     9    11 ar  
    19     9    22 1   
    20    10    11 ar  
    21    10    13 1   
    22    11    12 1   
    23    12    25 1   
    24    13    23 1   
    25    13    24 1   
@<TRIPOS>SUBSTRUCTURE
     1 TY2         1 TEMP              0 ****  ****    0 ROOT
