@<TRIPOS>MOLECULE
TY2
   25    25     1     0     0
SMALL
bcc


@<TRIPOS>ATOM
      1 N            1.5020    27.8640    41.2760 n8         1 TY2      -0.866800
      2 CA           2.0610    29.2050    41.4080 c3         1 TY2       0.018500
      3 C            1.3650    30.1310    40.3860 c          1 TY2       0.938600
      4 O            1.4470    29.7660    39.1930 o          1 TY2      -0.835300
      5 CB           3.5880    29.2340    41.2100 c3         1 TY2      -0.051100
      6 CG           4.2080    30.5840    41.4320 ca         1 TY2      -0.026300
      7 CD1          4.5820    30.9960    42.7050 ca         1 TY2      -0.136000
      8 CD2          4.4020    31.4670    40.3700 ca         1 TY2      -0.132000
      9 CE1          5.1340    32.2570    42.9050 ca         1 TY2      -0.191000
     10 CE2          4.9490    32.7350    40.5450 ca         1 TY2       0.111600
     11 CZ           5.3180    33.1260    41.8430 ca         1 TY2       0.053100
     12 OH           5.8550    34.3670    41.9730 oh         1 TY2      -0.517100
     13 NE2          5.0810    33.6260    39.4880 nv         1 TY2      -0.799200
     14 OXT          0.7940    31.1500    40.8180 o          1 TY2      -0.835300
     15 HN1          1.6250    27.5650    40.3150 hn         1 TY2       0.314300
     16 HA2          2.0360    27.2130    41.8410 hn         1 TY2       0.314300
     17 HB           1.8440    29.5640    42.4200 h1         1 TY2       0.048700
     18 HA1          4.0350    28.5130    41.9020 hc         1 TY2       0.025200
     19 HB2          3.8070    28.8770    40.2000 hc         1 TY2       0.025200
     20 HA           4.4520    30.3320    43.5510 ha         1 TY2       0.120000
     21 HC           4.1140    31.1610    39.3690 ha         1 TY2       0.155000
     22 HD           5.4280    32.5660    43.9030 ha         1 TY2       0.108000
     23 HE21         5.8530    34.2700    39.5680 hn         1 TY2       0.374800
     24 HE22         5.0830    33.1840    38.5810 hn         1 TY2       0.374800
     25 HH           6.1160    34.5230    42.8870 ho         1 TY2       0.407000
@<TRIPOS>BOND
     1     1     2 1   
     2     1    15 1   
     3     1    16 1   
     4     2     3 1   
     5     2     5 1   
     6     2    17 1   
     7     3     4 1   
     8     3    14 1   
     9     5     6 1   
    10     5    18 1   
    11     5    19 1   
    12     6     7 ar  
    13     6     8 ar  
    14     7     9 ar  
    15     7    20 1   
    16     8    10 ar  
    17     8    21 1   
    18     9    11 ar  
    19     9    22 1   
    20    10    11 ar  
    21    10    13 1   
    22    11    12 1   
    23    12    25 1   
    24    13    23 1   
    25    13    24 1   
@<TRIPOS>SUBSTRUCTURE
     1 TY2         1 TEMP              0 ****  ****    0 ROOT
