@<TRIPOS>MOLECULE
TY4
   45    47     1     0     0
SMALL
bcc


@<TRIPOS>ATOM
      1 C1           2.0160     1.2460     0.4930 ca         1 TY4       0.126100
      2 C2           2.9130     2.1850     0.0000 ca         1 TY4      -0.064300
      3 C3           4.2600     1.8320    -0.0400 ca         1 TY4      -0.090000
      4 C4           4.6660     0.5830     0.3980 ca         1 TY4      -0.016900
      5 C5           3.7580    -0.3360     0.9000 ca         1 TY4      -0.092000
      6 C6           2.4090    -0.0060     0.9540 ca         1 TY4      -0.102300
      7 C7           1.4260    -0.9680     1.5660 c3         1 TY4       0.143300
      8 N8           0.4290    -1.4410     0.6280 ns         1 TY4      -0.569900
      9 C9          -0.8540    -1.6560     0.9930 c          1 TY4       0.682700
     10 O10         -1.2980    -1.3590     2.0870 o          1 TY4      -0.579100
     11 C11         -1.7220    -2.2560    -0.0700 ca         1 TY4      -0.151600
     12 C12         -1.6600    -1.7770    -1.3770 ca         1 TY4      -0.100000
     13 C13         -2.5120    -2.2510    -2.3610 ca         1 TY4      -0.132000
     14 C14         -3.4350    -3.2370    -2.0510 ca         1 TY4      -0.101000
     15 C15         -3.5000    -3.7470    -0.7630 ca         1 TY4      -0.134000
     16 C16         -2.6550    -3.2520     0.2180 ca         1 TY4       0.071400
     17 CL17        -2.7600    -3.9640     1.7930 cl         1 TY4      -0.085400
     18 C18          2.4670     3.5380    -0.4660 c3         1 TY4      -0.052800
     19 BR19         6.4970     0.1280     0.3280 br         1 TY4      -0.087100
     20 O20          0.6780     1.5690     0.5980 os         1 TY4      -0.350200
     21 C21         -0.0790     1.4330    -0.5050 c          1 TY4       0.668700
     22 O22          0.3930     1.1950    -1.5820 o          1 TY4      -0.504000
     23 C23         -1.5200     1.5900    -0.2000 ca         1 TY4      -0.146600
     24 C24         -1.9460     1.6680     1.1290 ca         1 TY4      -0.044000
     25 C25         -3.2810     1.7560     1.4660 ca         1 TY4      -0.129000
     26 C26         -4.2230     1.7670     0.4510 ca         1 TY4       0.064400
     27 C27         -3.8460     1.7020    -0.8790 ca         1 TY4      -0.142000
     28 C28         -2.5010     1.6150    -1.1990 ca         1 TY4       0.079400
     29 CL29        -2.1350     1.5530    -2.8820 cl         1 TY4      -0.070400
     30 CL30        -5.8980     1.8660     0.8410 cl         1 TY4      -0.086400
     31 H3           4.9790     2.5480    -0.4160 ha         1 TY4       0.152000
     32 H5           4.0820    -1.3040     1.2580 ha         1 TY4       0.151000
     33 H7           1.9750    -1.8140     1.9840 h1         1 TY4       0.066700
     34 H7A          0.9060    -0.4900     2.3960 h1         1 TY4       0.066700
     35 HN8          0.7680    -1.8810    -0.2150 hn         1 TY4       0.321500
     36 H12         -0.9430    -1.0100    -1.6330 ha         1 TY4       0.151000
     37 H13         -2.4530    -1.8490    -3.3620 ha         1 TY4       0.143000
     38 H14         -4.1050    -3.6200    -2.8090 ha         1 TY4       0.138000
     39 H15         -4.2070    -4.5290    -0.5230 ha         1 TY4       0.150000
     40 H18          1.7320     3.9790     0.2070 hc         1 TY4       0.054033
     41 H18A         3.3130     4.2190    -0.5310 hc         1 TY4       0.054033
     42 H18B         2.0130     3.4820    -1.4570 hc         1 TY4       0.054033
     43 H24         -1.2210     1.6510     1.9280 ha         1 TY4       0.165000
     44 H25         -3.5790     1.8100     2.5030 ha         1 TY4       0.162000
     45 H27         -4.5900     1.7160    -1.6620 ha         1 TY4       0.165000
@<TRIPOS>BOND
     1     1     2 ar  
     2     1     6 ar  
     3     1    20 1   
     4     2     3 ar  
     5     2    18 1   
     6     3     4 ar  
     7     3    31 1   
     8     4     5 ar  
     9     4    19 1   
    10     5     6 ar  
    11     5    32 1   
    12     6     7 1   
    13     7     8 1   
    14     7    33 1   
    15     7    34 1   
    16     8     9 1   
    17     8    35 1   
    18     9    10 2   
    19     9    11 1   
    20    11    12 ar  
    21    11    16 ar  
    22    12    13 ar  
    23    12    36 1   
    24    13    14 ar  
    25    13    37 1   
    26    14    15 ar  
    27    14    38 1   
    28    15    16 ar  
    29    15    39 1   
    30    16    17 1   
    31    18    40 1   
    32    18    41 1   
    33    18    42 1   
    34    20    21 1   
    35    21    22 2   
    36    21    23 1   
    37    23    24 ar  
    38    23    28 ar  
    39    24    25 ar  
    40    24    43 1   
    41    25    26 ar  
    42    25    44 1   
    43    26    27 ar  
    44    26    30 1   
    45    27    28 ar  
    46    27    45 1   
    47    28    29 1   
@<TRIPOS>SUBSTRUCTURE
     1 TY4         1 TEMP              0 ****  ****    0 ROOT
