@<TRIPOS>MOLECULE
TY4
   45    47     1     0     0
SMALL
No Charge or Current Charge


@<TRIPOS>ATOM
      1 C1           2.0110     1.2920     0.5000 ca         1 TY4       0.126100
      2 C2           2.8700     2.2630    -0.0630 ca         1 TY4      -0.064300
      3 C3           4.2560     2.0150    -0.1040 ca         1 TY4      -0.072000
      4 C4           4.7750     0.8180     0.4140 ca         1 TY4      -0.016900
      5 C5           3.9210    -0.1410     0.9800 ca         1 TY4      -0.074000
      6 C6           2.5310     0.0860     1.0300 ca         1 TY4      -0.102300
      7 C7           1.6240    -0.9620     1.6730 c3         1 TY4       0.143300
      8 N8           0.6190    -1.4720     0.7400 ns         1 TY4      -0.502900
      9 C9          -0.5930    -2.0030     1.1230 c          1 TY4       0.615700
     10 O10         -0.7950    -2.2940     2.2920 o          1 TY4      -0.579100
     11 C11         -1.6110    -2.1960     0.0120 ca         1 TY4      -0.151600
     12 C12         -1.1840    -2.2260    -1.3430 ca         1 TY4      -0.082000
     13 C13         -2.1070    -2.3570    -2.3920 ca         1 TY4      -0.114000
     14 C14         -3.4760    -2.4640    -2.1190 ca         1 TY4      -0.083000
     15 C15         -3.9180    -2.4460    -0.7890 ca         1 TY4      -0.116000
     16 C16         -3.0050    -2.3180     0.2720 ca         1 TY4       0.163000
     17 Cl17        -3.7040    -2.2690     1.8940 cl         1 TY4      -0.177000
     18 C18          2.3180     3.5660    -0.6300 c3         1 TY4      -0.052800
     19 Br19         6.6590     0.4950     0.3530 br         1 TY4      -0.087100
     20 O20          0.6540     1.5120     0.5170 os         1 TY4      -0.350200
     21 C21         -0.1470     1.2280    -0.5580 c          1 TY4       0.619700
     22 O22          0.3050     0.7310    -1.5810 o          1 TY4      -0.455000
     23 C23         -1.6200     1.2260    -0.2170 ca         1 TY4      -0.146600
     24 C24         -2.0260     1.2020     1.1410 ca         1 TY4      -0.026000
     25 C25         -3.3870     1.1480     1.4840 ca         1 TY4      -0.111000
     26 C26         -4.3620     1.1120     0.4810 ca         1 TY4       0.156000
     27 C27         -3.9820     1.1470    -0.8650 ca         1 TY4      -0.124000
     28 C28         -2.6250     1.2070    -1.2210 ca         1 TY4       0.171000
     29 Cl29        -2.2600     1.2890    -2.9460 cl         1 TY4      -0.162000
     30 Cl30        -6.0640     1.0210     0.9110 cl         1 TY4      -0.178000
     31 H3           4.9310     2.7490    -0.5370 ha         1 TY4       0.134000
     32 H5           4.3410    -1.0600     1.3830 ha         1 TY4       0.133000
     33 H7           2.2190    -1.8070     2.0420 h1         1 TY4       0.066700
     34 H7A          1.1170    -0.5070     2.5350 h1         1 TY4       0.066700
     35 HN8          0.7360    -1.2580    -0.2420 hn         1 TY4       0.321500
     36 H12         -0.1310    -2.1580    -1.6050 ha         1 TY4       0.133000
     37 H13         -1.7580    -2.3750    -3.4230 ha         1 TY4       0.125000
     38 H14         -4.1910    -2.5610    -2.9330 ha         1 TY4       0.120000
     39 H15         -4.9810    -2.5250    -0.5760 ha         1 TY4       0.132000
     40 H18          1.6060     4.0300     0.0640 hc         1 TY4       0.054033
     41 H18A         3.1130     4.2980    -0.8180 hc         1 TY4       0.054033
     42 H18B         1.7980     3.3920    -1.5790 hc         1 TY4       0.054033
     43 H24         -1.2930     1.2070     1.9460 ha         1 TY4       0.147000
     44 H25         -3.6840     1.1210     2.5290 ha         1 TY4       0.144000
     45 H27         -4.7430     1.1280    -1.6400 ha         1 TY4       0.147000
@<TRIPOS>BOND
     1     1     2 ar  
     2     1     6 ar  
     3     1    20 1   
     4     2     3 ar  
     5     2    18 1   
     6     3     4 ar  
     7     3    31 1   
     8     4     5 ar  
     9     4    19 1   
    10     5     6 ar  
    11     5    32 1   
    12     6     7 1   
    13     7     8 1   
    14     7    33 1   
    15     7    34 1   
    16     8     9 1   
    17     8    35 1   
    18     9    10 2   
    19     9    11 1   
    20    11    12 ar  
    21    11    16 ar  
    22    12    13 ar  
    23    12    36 1   
    24    13    14 ar  
    25    13    37 1   
    26    14    15 ar  
    27    14    38 1   
    28    15    16 ar  
    29    15    39 1   
    30    16    17 1   
    31    18    40 1   
    32    18    41 1   
    33    18    42 1   
    34    20    21 1   
    35    21    22 2   
    36    21    23 1   
    37    23    24 ar  
    38    23    28 ar  
    39    24    25 ar  
    40    24    43 1   
    41    25    26 ar  
    42    25    44 1   
    43    26    27 ar  
    44    26    30 1   
    45    27    28 ar  
    46    27    45 1   
    47    28    29 1   
@<TRIPOS>SUBSTRUCTURE
     1 TY4         1 TEMP              0 ****  ****    0 ROOT
