@<TRIPOS>MOLECULE
TY8
   27    27     1     0     0
SMALL
abcg2


@<TRIPOS>ATOM
      1 C           -6.5390    97.8900    66.4590 c          1 TY8       0.723000
      2 N           -4.5720    96.3790    66.4460 n8         1 TY8      -0.994200
      3 C1          -3.4210    97.7310    64.1380 ca         1 TY8       0.035700
      4 C2          -2.9490    96.6430    63.4100 ca         1 TY8       0.033100
      5 O2          -3.8420    95.7160    62.9320 os         1 TY8      -0.129100
      6 C3          -1.5950    96.5140    63.1100 ca         1 TY8      -0.075000
      7 C4          -0.6990    97.4790    63.5170 ca         1 TY8       0.002100
      8 O4           0.6170    97.3710    63.1590 os         1 TY8      -0.132100
      9 C5          -1.1470    98.5980    64.2330 ca         1 TY8       0.131100
     10 O5          -0.2290    99.5110    64.5890 oh         1 TY8      -0.545100
     11 C6          -2.4970    98.7050    64.5240 ca         1 TY8      -0.214000
     12 CA          -5.0540    97.6910    66.0530 c3         1 TY8       0.030500
     13 CB          -4.8580    97.8960    64.5440 c3         1 TY8      -0.025100
     14 O2A         -3.6000    94.4570    63.5420 oh         1 TY8      -0.417000
     15 O4A          1.3890    97.0480    64.3100 oh         1 TY8      -0.454000
     16 O           -7.1320    98.8470    65.9250 o          1 TY8      -0.725500
     17 OXT         -7.0000    97.1050    67.3110 o          1 TY8      -0.725500
     18 HN          -3.5680    96.3980    66.5640 hn         1 TY8       0.385000
     19 HNA         -4.9740    96.1530    67.3460 hn         1 TY8       0.385000
     20 H3          -1.2330    95.6650    62.5420 ha         1 TY8       0.123000
     21 H4          -0.6380   100.2340    65.0790 ho         1 TY8       0.467000
     22 H6          -2.8490    99.5700    65.0780 ha         1 TY8       0.125000
     23 HA          -4.5050    98.5020    66.5620 h1         1 TY8      -0.012300
     24 HB          -5.1890    98.9020    64.2830 hc         1 TY8       0.071700
     25 HBA         -5.4950    97.1980    64.0020 hc         1 TY8       0.071700
     26 HO2A        -3.1870    93.9590    62.8220 ho         1 TY8       0.419000
     27 HO4A         1.7510    97.9110    64.5640 ho         1 TY8       0.442000
@<TRIPOS>BOND
     1     1    12 1   
     2     1    16 1   
     3     1    17 1   
     4     2    12 1   
     5     2    18 1   
     6     2    19 1   
     7     3     4 ar  
     8     3    11 ar  
     9     3    13 1   
    10     4     5 1   
    11     4     6 ar  
    12     5    14 1   
    13     6     7 ar  
    14     6    20 1   
    15     7     8 1   
    16     7     9 ar  
    17     8    15 1   
    18     9    10 1   
    19     9    11 ar  
    20    10    21 1   
    21    11    22 1   
    22    12    13 1   
    23    12    23 1   
    24    13    24 1   
    25    13    25 1   
    26    14    26 1   
    27    15    27 1   
@<TRIPOS>SUBSTRUCTURE
     1 TY8         1 TEMP              0 ****  ****    0 ROOT
