@<TRIPOS>MOLECULE
TY8
   27    27     1     0     0
SMALL
No Charge or Current Charge


@<TRIPOS>ATOM
      1 C           -6.6130    98.1710    66.4940 c          1 TY8       0.723000
      2 N           -4.7290    96.3410    66.6340 n8         1 TY8      -0.994200
      3 C1          -3.3800    97.6250    64.2210 ca         1 TY8       0.035700
      4 C2          -2.9390    96.5230    63.4450 ca         1 TY8       0.033100
      5 O2          -3.8640    95.5960    62.9970 os         1 TY8      -0.129100
      6 C3          -1.5710    96.4110    63.1050 ca         1 TY8      -0.075000
      7 C4          -0.6430    97.3660    63.5520 ca         1 TY8       0.002100
      8 O4           0.6770    97.2220    63.1800 os         1 TY8      -0.132100
      9 C5          -1.0850    98.4690    64.3220 ca         1 TY8       0.131100
     10 O5          -0.2120    99.4380    64.7400 oh         1 TY8      -0.545100
     11 C6          -2.4440    98.5900    64.6480 ca         1 TY8      -0.214000
     12 CA          -5.1400    97.6970    66.1210 c3         1 TY8       0.030500
     13 CB          -4.8550    97.8170    64.5950 c3         1 TY8      -0.025100
     14 O2A         -3.3080    94.2360    62.8960 oh         1 TY8      -0.417000
     15 O4A          1.5620    97.3580    64.3340 oh         1 TY8      -0.454000
     16 O           -7.5070    98.0710    65.6610 o          1 TY8      -0.725500
     17 OXT         -6.7980    98.6360    67.6120 o          1 TY8      -0.725500
     18 HN          -3.7390    96.1840    66.4130 hn         1 TY8       0.385000
     19 HNA         -4.7550    96.3500    67.6610 hn         1 TY8       0.385000
     20 H3          -1.2150    95.5900    62.4890 ha         1 TY8       0.123000
     21 H4          -0.7230   100.1410    65.1970 ho         1 TY8       0.467000
     22 H6          -2.7850    99.4410    65.2320 ha         1 TY8       0.125000
     23 HA          -4.4660    98.4060    66.6200 h1         1 TY8      -0.012300
     24 HB          -5.1690    98.8140    64.2650 hc         1 TY8       0.071700
     25 HBA         -5.5030    97.1160    64.0570 hc         1 TY8       0.071700
     26 HO2A        -3.1100    94.1940    61.9350 ho         1 TY8       0.419000
     27 HO4A         1.2990    98.2670    64.6180 ho         1 TY8       0.442000
@<TRIPOS>BOND
     1     1    12 1   
     2     1    16 1   
     3     1    17 1   
     4     2    12 1   
     5     2    18 1   
     6     2    19 1   
     7     3     4 ar  
     8     3    11 ar  
     9     3    13 1   
    10     4     5 1   
    11     4     6 ar  
    12     5    14 1   
    13     6     7 ar  
    14     6    20 1   
    15     7     8 1   
    16     7     9 ar  
    17     8    15 1   
    18     9    10 1   
    19     9    11 ar  
    20    10    21 1   
    21    11    22 1   
    22    12    13 1   
    23    12    23 1   
    24    13    24 1   
    25    13    25 1   
    26    14    26 1   
    27    15    27 1   
@<TRIPOS>SUBSTRUCTURE
     1 TY8         1 TEMP              0 ****  ****    0 ROOT
