@<TRIPOS>MOLECULE
TY9
   27    27     1     0     0
SMALL
No Charge or Current Charge


@<TRIPOS>ATOM
      1 C           -6.5380    98.0160    66.2950 c          1 TY9       0.722000
      2 N           -4.5180    96.3800    66.7070 n8         1 TY9      -1.004200
      3 O           -6.8230    98.5910    67.3390 o          1 TY9      -0.725000
      4 C1          -3.1500    97.5470    64.2610 ca         1 TY9       0.042700
      5 C2          -2.5940    96.3680    63.7330 ca         1 TY9      -0.190000
      6 C3          -1.2100    96.2830    63.4690 ca         1 TY9       0.136100
      7 O3          -0.6490    95.1250    62.9600 os         1 TY9      -0.101100
      8 C4          -0.3710    97.3770    63.7630 ca         1 TY9      -0.046900
      9 O4           0.9790    97.2780    63.4930 os         1 TY9      -0.117100
     10 C5          -0.9340    98.5710    64.2780 ca         1 TY9       0.161100
     11 O5          -0.1560    99.6670    64.5330 oh         1 TY9      -0.539100
     12 C6          -2.3140    98.6480    64.5220 ca         1 TY9      -0.243000
     13 CA          -5.0120    97.6420    66.0460 c3         1 TY9       0.028500
     14 CB          -4.6500    97.6430    64.5330 c3         1 TY9      -0.028100
     15 O3A         -1.5160    94.4710    61.9610 oh         1 TY9      -0.424000
     16 O4A          1.7700    97.6670    64.6560 oh         1 TY9      -0.457000
     17 OXT         -7.3750    97.7310    65.4460 o          1 TY9      -0.725000
     18 HN          -3.5060    96.2990    66.5580 hn         1 TY9       0.388000
     19 HNA         -4.6090    96.4790    67.7260 hn         1 TY9       0.388000
     20 H2          -3.2380    95.5150    63.5370 ha         1 TY9       0.146000
     21 H61         -0.7430   100.3990    64.8220 ho         1 TY9       0.466000
     22 H6          -2.7460    99.5630    64.9190 ha         1 TY9       0.125000
     23 HA          -4.4310    98.4540    66.5030 h1         1 TY9      -0.004300
     24 HB          -5.0330    98.5680    64.0840 hc         1 TY9       0.063700
     25 HBA         -5.1830    96.8250    64.0340 hc         1 TY9       0.063700
     26 HO3A        -1.1760    94.8800    61.1350 ho         1 TY9       0.440000
     27 HO4A         1.4600    98.6000    64.7430 ho         1 TY9       0.434000
@<TRIPOS>BOND
     1     1     3 1   
     2     1    13 1   
     3     1    17 1   
     4     2    13 1   
     5     2    18 1   
     6     2    19 1   
     7     4     5 ar  
     8     4    12 ar  
     9     4    14 1   
    10     5     6 ar  
    11     5    20 1   
    12     6     7 1   
    13     6     8 ar  
    14     7    15 1   
    15     8     9 1   
    16     8    10 ar  
    17     9    16 1   
    18    10    11 1   
    19    10    12 ar  
    20    11    21 1   
    21    12    22 1   
    22    13    14 1   
    23    13    23 1   
    24    14    24 1   
    25    14    25 1   
    26    15    26 1   
    27    16    27 1   
@<TRIPOS>SUBSTRUCTURE
     1 TY9         1 TEMP              0 ****  ****    0 ROOT
