@<TRIPOS>MOLECULE
TY9
   27    27     1     0     0
SMALL
abcg2


@<TRIPOS>ATOM
      1 C           -6.4220    97.7740    66.3210 c          1 TY9       0.722000
      2 N           -4.4040    96.3330    66.4340 n8         1 TY9      -1.004200
      3 O           -6.9010    96.9810    67.1540 o          1 TY9      -0.725000
      4 C1          -3.1840    97.7250    64.1640 ca         1 TY9       0.042700
      5 C2          -2.6190    96.5390    63.7030 ca         1 TY9      -0.190000
      6 C3          -1.2540    96.4820    63.4600 ca         1 TY9       0.136100
      7 O3          -0.5850    95.3890    63.0050 os         1 TY9      -0.101100
      8 C4          -0.4490    97.6050    63.6600 ca         1 TY9      -0.046900
      9 O4           0.8830    97.5520    63.3700 os         1 TY9      -0.117100
     10 C5          -1.0190    98.7890    64.1300 ca         1 TY9       0.161100
     11 O5          -0.1920    99.8300    64.3130 oh         1 TY9      -0.539100
     12 C6          -2.3860    98.8450    64.3730 ca         1 TY9      -0.243000
     13 CA          -4.9130    97.6180    65.9880 c3         1 TY9       0.028500
     14 CB          -4.6490    97.7930    64.4870 c3         1 TY9      -0.028100
     15 O3A         -1.4090    94.2640    62.9190 oh         1 TY9      -0.424000
     16 O4A          1.6140    97.2360    64.5560 oh         1 TY9      -0.457000
     17 OXT         -7.0140    98.7140    65.7550 o          1 TY9      -0.725000
     18 HN          -3.4050    96.3840    66.5800 hn         1 TY9       0.388000
     19 HNA         -4.8260    96.1200    67.3280 hn         1 TY9       0.388000
     20 H2          -3.2490    95.6760    63.5490 ha         1 TY9       0.146000
     21 H61         -0.6770   100.5920    64.6500 ho         1 TY9       0.466000
     22 H6          -2.8320    99.7670    64.7310 ha         1 TY9       0.125000
     23 HA          -4.4170    98.4620    66.4980 h1         1 TY9      -0.004300
     24 HB          -5.0510    98.7550    64.1690 hc         1 TY9       0.063700
     25 HBA         -5.1860    97.0140    63.9390 hc         1 TY9       0.063700
     26 HO3A        -1.6370    94.2390    61.9770 ho         1 TY9       0.440000
     27 HO4A         1.9170    98.1100    64.8440 ho         1 TY9       0.434000
@<TRIPOS>BOND
     1     1     3 1   
     2     1    13 1   
     3     1    17 1   
     4     2    13 1   
     5     2    18 1   
     6     2    19 1   
     7     4     5 ar  
     8     4    12 ar  
     9     4    14 1   
    10     5     6 ar  
    11     5    20 1   
    12     6     7 1   
    13     6     8 ar  
    14     7    15 1   
    15     8     9 1   
    16     8    10 ar  
    17     9    16 1   
    18    10    11 1   
    19    10    12 ar  
    20    11    21 1   
    21    12    22 1   
    22    13    14 1   
    23    13    23 1   
    24    14    24 1   
    25    14    25 1   
    26    15    26 1   
    27    16    27 1   
@<TRIPOS>SUBSTRUCTURE
     1 TY9         1 TEMP              0 ****  ****    0 ROOT
