@<TRIPOS>MOLECULE
TYA
   58    61     1     0     0
SMALL
No Charge or Current Charge


@<TRIPOS>ATOM
      1 OPP         -1.7600     3.4840    -0.9580 os         1 TYA      -0.583400
      2 P           -1.2940     3.3710    -2.4960 p5         1 TYA       1.407800
      3 O1P         -1.1140     1.9670    -2.9670 o          1 TYA      -0.827500
      4 O2P         -2.2310     4.1280    -3.3770 o          1 TYA      -0.827500
      5 O5           0.1160     4.1530    -2.3940 os         1 TYA      -0.573400
      6 C5           1.3430     3.5160    -1.9870 c3         1 TYA       0.220600
      7 C4           1.2950     3.0390    -0.5010 c5         1 TYA       0.137300
      8 O4           0.9870     1.6140    -0.4670 os         1 TYA      -0.412000
      9 C3           2.6720     3.1920     0.2460 c5         1 TYA       0.104300
     10 O3           2.5220     3.4330     1.6520 oh         1 TYA      -0.709000
     11 C2           3.2850     1.7860     0.0040 c5         1 TYA       0.068300
     12 O2           4.3920     1.5160     0.8890 oh         1 TYA      -0.700000
     13 C1           2.0080     0.9310     0.2820 c5         1 TYA       0.321300
     14 N9           2.0290    -0.4840    -0.0890 na         1 TYA      -0.288300
     15 C8           2.9390    -1.0940    -0.9620 cc         1 TYA       0.442700
     16 N7           2.7400    -2.4270    -1.0260 nd         1 TYA      -0.579100
     17 C7           1.6660    -2.6340    -0.1550 ca         1 TYA      -0.092600
     18 C6           1.0210    -3.8360     0.2050 ca         1 TYA       0.419900
     19 N6           1.3920    -5.0470    -0.2940 nv         1 TYA      -1.062900
     20 N1           0.0110    -3.8440     1.0890 nb         1 TYA      -0.306000
     21 C10         -0.3510    -2.6380     1.5900 ca         1 TYA       0.157900
     22 N3           0.2080    -1.4380     1.3010 nb         1 TYA      -0.200000
     23 C9           1.2250    -1.4670     0.4170 ca         1 TYA       0.119500
     24 NH2         -2.1130     1.2440     1.2300 n8         1 TYA      -0.966200
     25 CA          -2.7280     1.3610    -0.1210 c3         1 TYA       0.155500
     26 C           -2.9820     2.8510    -0.5430 c3         1 TYA       0.242600
     27 CB          -4.0360     0.5320    -0.1670 c3         1 TYA      -0.076100
     28 CG          -3.8460    -0.9520     0.1410 ca         1 TYA      -0.101300
     29 CD1         -4.3870    -1.5130     1.3150 ca         1 TYA      -0.076000
     30 CD2         -3.1600    -1.7820    -0.7680 ca         1 TYA      -0.076000
     31 CE1         -4.2470    -2.8880     1.5750 ca         1 TYA      -0.173500
     32 CE2         -3.0240    -3.1570    -0.5080 ca         1 TYA      -0.173500
     33 CZ          -3.5700    -3.7090     0.6600 ca         1 TYA       0.121100
     34 OH          -3.4450    -5.0450     0.9000 oh         1 TYA      -0.541100
     35 H5'1         1.5760     2.6640    -2.6400 h1         1 TYA       0.027200
     36 H5'2         2.1630     4.2360    -2.0990 h1         1 TYA       0.027200
     37 H4           0.5190     3.6010     0.0350 h1         1 TYA       0.105700
     38 H3           3.2930     3.9800    -0.2030 h1         1 TYA       0.049700
     39 HO'3         3.2770     2.9490     2.0700 ho         1 TYA       0.509000
     40 H2           3.5950     1.6830    -1.0460 h1         1 TYA       0.065700
     41 HO'2         5.2110     1.8690     0.4650 ho         1 TYA       0.503000
     42 H1           1.7610     0.9630     1.3510 h2         1 TYA       0.105700
     43 H8           3.7020    -0.5390    -1.4980 h5         1 TYA       0.135800
     44 H61          2.2820    -5.0890    -0.7850 hn         1 TYA       0.490000
     45 H62          1.0950    -5.8850     0.1980 hn         1 TYA       0.490000
     46 H7          -1.1740    -2.6320     2.3030 h5         1 TYA       0.035100
     47 HN2         -1.9000     0.2560     1.3980 hn         1 TYA       0.379000
     48 HA          -2.0290     0.9170    -0.8420 h1         1 TYA       0.073700
     49 H9          -3.7090     2.8690    -1.3660 h1         1 TYA       0.015700
     50 H2A         -3.4320     3.3990     0.2940 h1         1 TYA       0.015700
     51 HB1         -4.7670     0.9770     0.5200 hc         1 TYA       0.048200
     52 HB2         -4.4740     0.6300    -1.1680 hc         1 TYA       0.048200
     53 HD1         -4.9240    -0.8860     2.0240 ha         1 TYA       0.117500
     54 HD2         -2.7410    -1.3630    -1.6810 ha         1 TYA       0.117500
     55 HE1         -4.6730    -3.3070     2.4830 ha         1 TYA       0.117000
     56 HE2         -2.4970    -3.7930    -1.2140 ha         1 TYA       0.117000
     57 HH          -3.8810    -5.2480     1.7540 ho         1 TYA       0.453000
     58 HN1         -2.8180     1.4670     1.9380 hn         1 TYA       0.379000
@<TRIPOS>BOND
     1     1     2 1   
     2     1    26 1   
     3     2     3 1   
     4     2     4 1   
     5     2     5 1   
     6     5     6 1   
     7     6     7 1   
     8     6    35 1   
     9     6    36 1   
    10     7     8 1   
    11     7     9 1   
    12     7    37 1   
    13     8    13 1   
    14     9    10 1   
    15     9    11 1   
    16     9    38 1   
    17    10    39 1   
    18    11    12 1   
    19    11    13 1   
    20    11    40 1   
    21    12    41 1   
    22    13    14 1   
    23    13    42 1   
    24    14    15 1   
    25    14    23 1   
    26    15    16 2   
    27    15    43 1   
    28    16    17 1   
    29    17    18 ar  
    30    17    23 ar  
    31    18    19 1   
    32    18    20 ar  
    33    19    44 1   
    34    19    45 1   
    35    20    21 ar  
    36    21    22 ar  
    37    21    46 1   
    38    22    23 ar  
    39    24    25 1   
    40    24    47 1   
    41    24    58 1   
    42    25    26 1   
    43    25    27 1   
    44    25    48 1   
    45    26    49 1   
    46    26    50 1   
    47    27    28 1   
    48    27    51 1   
    49    27    52 1   
    50    28    29 ar  
    51    28    30 ar  
    52    29    31 ar  
    53    29    53 1   
    54    30    32 ar  
    55    30    54 1   
    56    31    33 ar  
    57    31    55 1   
    58    32    33 ar  
    59    32    56 1   
    60    33    34 1   
    61    34    57 1   
@<TRIPOS>SUBSTRUCTURE
     1 TYA         1 TEMP              0 ****  ****    0 ROOT
