@<TRIPOS>MOLECULE
TYA
   58    61     1     0     0
SMALL
abcg2


@<TRIPOS>ATOM
      1 OPP         -1.5750     2.8390    -1.4310 os         1 TYA      -0.583400
      2 P           -0.6480     3.5250    -2.5940 p5         1 TYA       1.407800
      3 O1P          0.0820     2.4560    -3.3580 o          1 TYA      -0.827500
      4 O2P         -1.4310     4.5750    -3.3110 o          1 TYA      -0.827500
      5 O5           0.3810     4.3300    -1.6050 os         1 TYA      -0.573400
      6 C5           1.6450     3.8340    -1.2420 c3         1 TYA       0.220600
      7 C4           1.6850     3.3640     0.2020 c5         1 TYA       0.137300
      8 O4           0.9020     2.1800     0.3920 os         1 TYA      -0.412000
      9 C3           3.0980     2.9940     0.6350 c5         1 TYA       0.104300
     10 O3           3.2050     3.1610     2.0250 oh         1 TYA      -0.709000
     11 C2           3.1370     1.5110     0.2650 c5         1 TYA       0.068300
     12 O2           4.0790     0.7550     0.9640 oh         1 TYA      -0.700000
     13 C1           1.7210     1.0820     0.6510 c5         1 TYA       0.321300
     14 N9           1.2440    -0.0650    -0.0840 na         1 TYA      -0.288300
     15 C8           0.8080    -0.1130    -1.3840 cc         1 TYA       0.442700
     16 N7           0.5150    -1.3190    -1.7790 nd         1 TYA      -0.579100
     17 C7           0.7740    -2.1100    -0.6920 ca         1 TYA      -0.092600
     18 C6           0.6400    -3.4870    -0.4620 ca         1 TYA       0.419900
     19 N6           0.1560    -4.3270    -1.3870 nv         1 TYA      -1.062900
     20 N1           0.9650    -3.9620     0.7440 nb         1 TYA      -0.306000
     21 C10          1.3810    -3.1080     1.6780 ca         1 TYA       0.157900
     22 N3           1.5420    -1.8010     1.5870 nb         1 TYA      -0.200000
     23 C9           1.2230    -1.3490     0.3770 ca         1 TYA       0.119500
     24 NH2         -3.1960     1.6180     0.5470 n8         1 TYA      -0.966200
     25 CA          -2.6860     0.8880    -0.5980 c3         1 TYA       0.155500
     26 C           -2.4900     1.8280    -1.7760 c3         1 TYA       0.242600
     27 CB          -3.5640    -0.3030    -1.0350 c3         1 TYA      -0.076100
     28 CG          -3.6280    -1.3810     0.0060 ca         1 TYA      -0.101300
     29 CD1         -4.5700    -1.3690     1.0290 ca         1 TYA      -0.076000
     30 CD2         -2.6900    -2.4130     0.0080 ca         1 TYA      -0.076000
     31 CE1         -4.5730    -2.3380     2.0240 ca         1 TYA      -0.173500
     32 CE2         -2.6790    -3.3890     0.9880 ca         1 TYA      -0.173500
     33 CZ          -3.6200    -3.3500     2.0120 ca         1 TYA       0.121100
     34 OH          -3.5640    -4.3180     2.9560 oh         1 TYA      -0.541100
     35 H5'1         1.9710     3.0360    -1.9150 h1         1 TYA       0.027200
     36 H5'2         2.3660     4.6500    -1.3510 h1         1 TYA       0.027200
     37 H4           1.2760     4.1510     0.8430 h1         1 TYA       0.105700
     38 H3           3.8610     3.5740     0.1000 h1         1 TYA       0.049700
     39 HO'3         3.9300     2.6060     2.3340 ho         1 TYA       0.509000
     40 H2           3.2640     1.4110    -0.8210 h1         1 TYA       0.065700
     41 HO'2         4.9250     0.8240     0.5140 ho         1 TYA       0.503000
     42 H1           1.6930     0.7930     1.7090 h2         1 TYA       0.105700
     43 H8           0.6980     0.7770    -1.9900 h5         1 TYA       0.135800
     44 H61          0.0940    -4.0300    -2.3450 hn         1 TYA       0.490000
     45 H62          0.2260    -5.3170    -1.2310 hn         1 TYA       0.490000
     46 H7           1.6270    -3.5530     2.6370 h5         1 TYA       0.035100
     47 HN2         -3.1660     1.0380     1.3750 hn         1 TYA       0.379000
     48 HA          -1.7010     0.5030    -0.3200 h1         1 TYA       0.073700
     49 H9          -2.1340     1.2460    -2.6340 h1         1 TYA       0.015700
     50 H2A         -3.4580     2.2650    -2.0640 h1         1 TYA       0.015700
     51 HB1         -4.5700     0.0650    -1.2660 hc         1 TYA       0.048200
     52 HB2         -3.1690    -0.7230    -1.9650 hc         1 TYA       0.048200
     53 HD1         -5.3330    -0.6010     1.0530 ha         1 TYA       0.117500
     54 HD2         -1.9530    -2.4580    -0.7830 ha         1 TYA       0.117500
     55 HE1         -5.3250    -2.3000     2.8050 ha         1 TYA       0.117000
     56 HE2         -1.9350    -4.1760     0.9680 ha         1 TYA       0.117000
     57 HH          -4.2680    -4.1960     3.5990 ho         1 TYA       0.453000
     58 HN1         -4.1700     1.8600     0.4020 hn         1 TYA       0.379000
@<TRIPOS>BOND
     1     1     2 1   
     2     1    26 1   
     3     2     3 1   
     4     2     4 1   
     5     2     5 1   
     6     5     6 1   
     7     6     7 1   
     8     6    35 1   
     9     6    36 1   
    10     7     8 1   
    11     7     9 1   
    12     7    37 1   
    13     8    13 1   
    14     9    10 1   
    15     9    11 1   
    16     9    38 1   
    17    10    39 1   
    18    11    12 1   
    19    11    13 1   
    20    11    40 1   
    21    12    41 1   
    22    13    14 1   
    23    13    42 1   
    24    14    15 1   
    25    14    23 1   
    26    15    16 2   
    27    15    43 1   
    28    16    17 1   
    29    17    18 ar  
    30    17    23 ar  
    31    18    19 1   
    32    18    20 ar  
    33    19    44 1   
    34    19    45 1   
    35    20    21 ar  
    36    21    22 ar  
    37    21    46 1   
    38    22    23 ar  
    39    24    25 1   
    40    24    47 1   
    41    24    58 1   
    42    25    26 1   
    43    25    27 1   
    44    25    48 1   
    45    26    49 1   
    46    26    50 1   
    47    27    28 1   
    48    27    51 1   
    49    27    52 1   
    50    28    29 ar  
    51    28    30 ar  
    52    29    31 ar  
    53    29    53 1   
    54    30    32 ar  
    55    30    54 1   
    56    31    33 ar  
    57    31    55 1   
    58    32    33 ar  
    59    32    56 1   
    60    33    34 1   
    61    34    57 1   
@<TRIPOS>SUBSTRUCTURE
     1 TYA         1 TEMP              0 ****  ****    0 ROOT
