@<TRIPOS>MOLECULE
TYB
   23    23     1     0     0
SMALL
No Charge or Current Charge


@<TRIPOS>ATOM
      1 N           26.3120    13.8750    11.8070 n8         1 TYB      -0.885800
      2 CA          26.8580    13.1720    13.0150 c3         1 TYB       0.038500
      3 C           26.7050    13.9630    14.3570 c          1 TYB       0.579900
      4 O           27.6310    14.5180    14.9470 o          1 TYB      -0.517100
      5 CB          28.3230    12.7270    12.7490 c3         1 TYB      -0.052100
      6 CG          28.4760    11.8530    11.5040 ca         1 TYB      -0.127300
      7 CD1         29.1320    12.3490    10.3590 ca         1 TYB      -0.089500
      8 CD2         27.9670    10.5390    11.4950 ca         1 TYB      -0.089500
      9 CE1         29.2700    11.5390     9.2180 ca         1 TYB      -0.190000
     10 CE2         28.1080     9.7320    10.3520 ca         1 TYB      -0.190000
     11 CZ          28.7590    10.2340     9.2140 ca         1 TYB       0.140100
     12 OH          28.8990     9.4580     8.1040 oh         1 TYB      -0.494100
     13 H           26.5110    13.3010    10.9790 hn         1 TYB       0.350300
     14 H2          26.8450    14.7360    11.6410 hn         1 TYB       0.350300
     15 HA          26.2580    12.2610    13.1530 h1         1 TYB       0.076700
     16 HC          25.6720    13.9940    14.7680 h4         1 TYB       0.006200
     17 HB2         28.9620    13.6160    12.6730 hc         1 TYB       0.063200
     18 HB3         28.6870    12.1730    13.6240 hc         1 TYB       0.063200
     19 HD1         29.5330    13.3610    10.3510 ha         1 TYB       0.130000
     20 HD2         27.4630    10.1420    12.3750 ha         1 TYB       0.130000
     21 HE1         29.7760    11.9250     8.3360 ha         1 TYB       0.140500
     22 HE2         27.7090     8.7200    10.3580 ha         1 TYB       0.140500
     23 HH          28.4870     8.5870     8.2810 ho         1 TYB       0.427000
@<TRIPOS>BOND
     1     1     2 1   
     2     1    13 1   
     3     1    14 1   
     4     2     3 1   
     5     2     5 1   
     6     2    15 1   
     7     3     4 2   
     8     3    16 1   
     9     5     6 1   
    10     5    17 1   
    11     5    18 1   
    12     6     7 ar  
    13     6     8 ar  
    14     7     9 ar  
    15     7    19 1   
    16     8    10 ar  
    17     8    20 1   
    18     9    11 ar  
    19     9    21 1   
    20    10    11 ar  
    21    10    22 1   
    22    11    12 1   
    23    12    23 1   
@<TRIPOS>SUBSTRUCTURE
     1 TYB         1 TEMP              0 ****  ****    0 ROOT
