@<TRIPOS>MOLECULE
TYB
   23    23     1     0     0
SMALL
bcc


@<TRIPOS>ATOM
      1 N           26.4480    14.0420    11.8500 n8         1 TYB      -0.885800
      2 CA          26.9150    13.1950    12.9300 c3         1 TYB       0.038500
      3 C           26.6840    13.9430    14.2220 c          1 TYB       0.579900
      4 O           27.4560    13.9960    15.1440 o          1 TYB      -0.517100
      5 CB          28.3440    12.6540    12.8000 c3         1 TYB      -0.052100
      6 CG          28.5060    11.8100    11.5690 ca         1 TYB      -0.127300
      7 CD1         28.9570    12.3500    10.3660 ca         1 TYB      -0.089500
      8 CD2         28.1570    10.4630    11.5780 ca         1 TYB      -0.089500
      9 CE1         29.0610    11.5820     9.2160 ca         1 TYB      -0.190000
     10 CE2         28.2520     9.6780    10.4380 ca         1 TYB      -0.190000
     11 CZ          28.7050    10.2360     9.2450 ca         1 TYB       0.140100
     12 OH          28.8230     9.5260     8.1030 oh         1 TYB      -0.494100
     13 H           26.3520    13.5020    11.0000 hn         1 TYB       0.350300
     14 H2          27.1310    14.7640    11.6530 hn         1 TYB       0.350300
     15 HA          26.2240    12.3420    12.9830 h1         1 TYB       0.076700
     16 HC          25.7060    14.4600    14.2590 h4         1 TYB       0.006200
     17 HB2         29.0410    13.4960    12.7760 hc         1 TYB       0.063200
     18 HB3         28.5900    12.0660    13.6870 hc         1 TYB       0.063200
     19 HD1         29.2430    13.3950    10.3240 ha         1 TYB       0.130000
     20 HD2         27.8030    10.0080    12.4960 ha         1 TYB       0.130000
     21 HE1         29.4200    12.0240     8.2950 ha         1 TYB       0.140500
     22 HE2         27.9760     8.6300    10.4810 ha         1 TYB       0.140500
     23 HH          28.5480     8.6130     8.2430 ho         1 TYB       0.427000
@<TRIPOS>BOND
     1     1     2 1   
     2     1    13 1   
     3     1    14 1   
     4     2     3 1   
     5     2     5 1   
     6     2    15 1   
     7     3     4 2   
     8     3    16 1   
     9     5     6 1   
    10     5    17 1   
    11     5    18 1   
    12     6     7 ar  
    13     6     8 ar  
    14     7     9 ar  
    15     7    19 1   
    16     8    10 ar  
    17     8    20 1   
    18     9    11 ar  
    19     9    21 1   
    20    10    11 ar  
    21    10    22 1   
    22    11    12 1   
    23    12    23 1   
@<TRIPOS>SUBSTRUCTURE
     1 TYB         1 TEMP              0 ****  ****    0 ROOT
