@<TRIPOS>MOLECULE
TYC
   25    25     1     0     0
SMALL
abcg2


@<TRIPOS>ATOM
      1 N            1.2750     1.1250     1.5100 n8         1 TYC      -0.983200
      2 CA           0.0180     0.4640     1.7830 c3         1 TYC       0.087500
      3 C           -0.0410     0.1030     3.2620 c          1 TYC       0.610100
      4 O            0.9560    -0.2580     3.8710 o          1 TYC      -0.599100
      5 CB          -0.2390    -0.8260     0.9680 c3         1 TYC      -0.065100
      6 CG          -0.2180    -0.5720    -0.5110 ca         1 TYC      -0.128300
      7 CD1          0.9320    -0.7760    -1.2670 ca         1 TYC      -0.069500
      8 CD2         -1.3450    -0.0780    -1.1680 ca         1 TYC      -0.069500
      9 CE1          0.9630    -0.5070    -2.6290 ca         1 TYC      -0.172500
     10 CE2         -1.3330     0.1960    -2.5250 ca         1 TYC      -0.172500
     11 CZ          -0.1730    -0.0180    -3.2670 ca         1 TYC       0.141100
     12 NXT         -1.2600     0.1580     3.8130 nt         1 TYC      -0.609000
     13 H0           2.0420     0.4860     1.6790 hn         1 TYC       0.409000
     14 H            1.3190     1.3730     0.5300 hn         1 TYC       0.409000
     15 HA          -0.7870     1.1710     1.5580 h1         1 TYC       0.063700
     16 HB1          0.5240    -1.5630     1.2300 hc         1 TYC       0.058200
     17 HB2         -1.2050    -1.2490     1.2590 hc         1 TYC       0.058200
     18 HD1          1.8250    -1.1640    -0.7910 ha         1 TYC       0.112000
     19 HD2         -2.2570     0.0920    -0.6090 ha         1 TYC       0.112000
     20 HE1          1.8730    -0.6840    -3.1920 ha         1 TYC       0.122500
     21 HE2         -2.2230     0.5720    -3.0150 ha         1 TYC       0.122500
     22 HH           0.6410     0.0450    -4.9930 ho         1 TYC       0.466000
     23 HT21        -1.4040    -0.1180     4.7710 hn         1 TYC       0.313000
     24 HT22        -2.0610     0.4860     3.3030 hn         1 TYC       0.313000
     25 OH          -0.2060     0.2600    -4.5870 oh         1 TYC      -0.531100
@<TRIPOS>BOND
     1     1     2 1   
     2     1    13 1   
     3     1    14 1   
     4     2     3 1   
     5     2     5 1   
     6     2    15 1   
     7     3     4 2   
     8     3    12 1   
     9     5     6 1   
    10     5    16 1   
    11     5    17 1   
    12     6     7 ar  
    13     6     8 ar  
    14     7     9 ar  
    15     7    18 1   
    16     8    10 ar  
    17     8    19 1   
    18     9    11 ar  
    19     9    20 1   
    20    10    11 ar  
    21    10    21 1   
    22    11    25 1   
    23    12    23 1   
    24    12    24 1   
    25    22    25 1   
@<TRIPOS>SUBSTRUCTURE
     1 TYC         1 TEMP              0 ****  ****    0 ROOT
