@<TRIPOS>MOLECULE
TYC
   25    25     1     0     0
SMALL
No Charge or Current Charge


@<TRIPOS>ATOM
      1 N            1.1830     1.3080     1.3750 n8         1 TYC      -0.983200
      2 CA          -0.0160     0.5290     1.8410 c3         1 TYC       0.087500
      3 C           -0.0840     0.2030     3.3820 c          1 TYC       0.610100
      4 O            0.8720     0.2900     4.1410 o          1 TYC      -0.599100
      5 CB          -0.1820    -0.7560     0.9840 c3         1 TYC      -0.065100
      6 CG          -0.1730    -0.4940    -0.5220 ca         1 TYC      -0.128300
      7 CD1          0.8930    -0.9530    -1.3220 ca         1 TYC      -0.069500
      8 CD2         -1.2400     0.2020    -1.1260 ca         1 TYC      -0.069500
      9 CE1          0.8950    -0.7120    -2.7070 ca         1 TYC      -0.172500
     10 CE2         -1.2350     0.4400    -2.5120 ca         1 TYC      -0.172500
     11 CZ          -0.1690    -0.0150    -3.3010 ca         1 TYC       0.141100
     12 NXT         -1.2860    -0.1950     3.8640 nt         1 TYC      -0.609000
     13 H0           2.0350     0.8030     1.6490 hn         1 TYC       0.409000
     14 H            1.2060     1.2760     0.3480 hn         1 TYC       0.409000
     15 HA          -0.8940     1.1580     1.6370 h1         1 TYC       0.063700
     16 HB1          0.6100    -1.4660     1.2530 hc         1 TYC       0.058200
     17 HB2         -1.1240    -1.2480     1.2550 hc         1 TYC       0.058200
     18 HD1          1.7220    -1.4950    -0.8710 ha         1 TYC       0.112000
     19 HD2         -2.0730     0.5560    -0.5230 ha         1 TYC       0.112000
     20 HE1          1.7260    -1.0710    -3.3110 ha         1 TYC       0.122500
     21 HE2         -2.0600     0.9780    -2.9720 ha         1 TYC       0.122500
     22 HH           0.6400    -0.1660    -5.0290 ho         1 TYC       0.466000
     23 HT21        -1.3750    -0.4120     4.8450 hn         1 TYC       0.313000
     24 HT22        -2.0820    -0.2650     3.2480 hn         1 TYC       0.313000
     25 OH          -0.1740     0.2220    -4.6430 oh         1 TYC      -0.531100
@<TRIPOS>BOND
     1     1     2 1   
     2     1    13 1   
     3     1    14 1   
     4     2     3 1   
     5     2     5 1   
     6     2    15 1   
     7     3     4 2   
     8     3    12 1   
     9     5     6 1   
    10     5    16 1   
    11     5    17 1   
    12     6     7 ar  
    13     6     8 ar  
    14     7     9 ar  
    15     7    18 1   
    16     8    10 ar  
    17     8    19 1   
    18     9    11 ar  
    19     9    20 1   
    20    10    11 ar  
    21    10    21 1   
    22    11    25 1   
    23    12    23 1   
    24    12    24 1   
    25    22    25 1   
@<TRIPOS>SUBSTRUCTURE
     1 TYC         1 TEMP              0 ****  ****    0 ROOT
