@<TRIPOS>MOLECULE
TYE
   25    25     1     0     0
SMALL
abcg2


@<TRIPOS>ATOM
      1 C            6.6770    89.6440    33.5990 c3         1 TYE       0.167600
      2 N            6.8480    87.5510    32.3400 n8         1 TYE      -0.983200
      3 O            7.7460    90.2530    32.9130 oh         1 TYE      -0.641000
      4 CA           6.8740    88.1380    33.6730 c3         1 TYE       0.171500
      5 CB           8.1820    87.7670    34.3820 c3         1 TYE      -0.021100
      6 CG           8.2990    86.2890    34.6310 ca         1 TYE      -0.123300
      7 CZ           8.4320    83.5090    35.0560 ca         1 TYE       0.135100
      8 CD1          9.0570    85.4650    33.8020 ca         1 TYE      -0.069000
      9 CD2          7.6130    85.6840    35.6830 ca         1 TYE      -0.069000
     10 CE1          9.1280    84.0940    34.0030 ca         1 TYE      -0.176500
     11 CE2          7.6720    84.3160    35.9010 ca         1 TYE      -0.176500
     12 H            6.5870    90.0200    34.6270 h1         1 TYE       0.013700
     13 HA           5.7150    89.8480    33.1060 h1         1 TYE       0.013700
     14 HN           6.8960    86.5420    32.4190 hn         1 TYE       0.394000
     15 HNA          5.9530    87.7440    31.9070 hn         1 TYE       0.394000
     16 HO           7.6190    91.2050    32.9490 ho         1 TYE       0.436000
     17 HAA          6.0490    87.7760    34.3080 h1         1 TYE       0.011700
     18 HB           9.0290    88.1120    33.7860 hc         1 TYE       0.061200
     19 HBA          8.2220    88.3050    35.3340 hc         1 TYE       0.061200
     20 HOH          8.0000    81.8850    35.9680 ho         1 TYE       0.463000
     21 HD1          9.6110    85.9010    32.9790 ha         1 TYE       0.116000
     22 HD2          7.0190    86.2950    36.3530 ha         1 TYE       0.116000
     23 HE1          9.7230    83.4750    33.3430 ha         1 TYE       0.120000
     24 HE2          7.1290    83.8780    36.7310 ha         1 TYE       0.120000
     25 OH           8.5280    82.1720    35.2140 oh         1 TYE      -0.534100
@<TRIPOS>BOND
     1     1     3 1   
     2     1     4 1   
     3     1    12 1   
     4     1    13 1   
     5     2     4 1   
     6     2    14 1   
     7     2    15 1   
     8     3    16 1   
     9     4     5 1   
    10     4    17 1   
    11     5     6 1   
    12     5    18 1   
    13     5    19 1   
    14     6     8 ar  
    15     6     9 ar  
    16     7    10 ar  
    17     7    11 ar  
    18     7    25 1   
    19     8    10 ar  
    20     8    21 1   
    21     9    11 ar  
    22     9    22 1   
    23    10    23 1   
    24    11    24 1   
    25    20    25 1   
@<TRIPOS>SUBSTRUCTURE
     1 TYE         1 TEMP              0 ****  ****    0 ROOT
