@<TRIPOS>MOLECULE
TYE
   25    25     1     0     0
SMALL
No Charge or Current Charge


@<TRIPOS>ATOM
      1 C            6.7210    89.7490    33.6200 c3         1 TYE       0.167600
      2 N            6.6940    87.5220    32.3830 n8         1 TYE      -0.983200
      3 O            7.7420    90.3640    32.8140 oh         1 TYE      -0.641000
      4 CA           6.8780    88.1920    33.6980 c3         1 TYE       0.171500
      5 CB           8.2100    87.7520    34.3630 c3         1 TYE      -0.021100
      6 CG           8.3030    86.2440    34.6000 ca         1 TYE      -0.123300
      7 CZ           8.4730    83.4660    35.0470 ca         1 TYE       0.135100
      8 CD1          9.1720    85.4510    33.8240 ca         1 TYE      -0.069000
      9 CD2          7.5220    85.6350    35.6030 ca         1 TYE      -0.069000
     10 CE1          9.2540    84.0650    34.0480 ca         1 TYE      -0.176500
     11 CE2          7.6070    84.2490    35.8250 ca         1 TYE      -0.176500
     12 H            6.7560    90.1570    34.6390 h1         1 TYE       0.013700
     13 HA           5.7290    89.9850    33.2120 h1         1 TYE       0.013700
     14 HN           6.8190    86.5130    32.5200 hn         1 TYE       0.394000
     15 HNA          5.7130    87.6120    32.0980 hn         1 TYE       0.394000
     16 HO           7.5190    91.3190    32.7520 ho         1 TYE       0.436000
     17 HAA          6.0660    87.8260    34.3400 h1         1 TYE       0.011700
     18 HB           9.0510    88.0950    33.7490 hc         1 TYE       0.061200
     19 HBA          8.3100    88.2730    35.3230 hc         1 TYE       0.061200
     20 HOH          7.9510    81.8820    35.9860 ho         1 TYE       0.463000
     21 HD1          9.7820    85.9060    33.0460 ha         1 TYE       0.116000
     22 HD2          6.8500    86.2370    36.2120 ha         1 TYE       0.116000
     23 HE1          9.9260    83.4580    33.4470 ha         1 TYE       0.120000
     24 HE2          6.9980    83.7940    36.6030 ha         1 TYE       0.120000
     25 OH           8.5610    82.1220    35.2560 oh         1 TYE      -0.534100
@<TRIPOS>BOND
     1     1     3 1   
     2     1     4 1   
     3     1    12 1   
     4     1    13 1   
     5     2     4 1   
     6     2    14 1   
     7     2    15 1   
     8     3    16 1   
     9     4     5 1   
    10     4    17 1   
    11     5     6 1   
    12     5    18 1   
    13     5    19 1   
    14     6     8 ar  
    15     6     9 ar  
    16     7    10 ar  
    17     7    11 ar  
    18     7    25 1   
    19     8    10 ar  
    20     8    21 1   
    21     9    11 ar  
    22     9    22 1   
    23    10    23 1   
    24    11    24 1   
    25    20    25 1   
@<TRIPOS>SUBSTRUCTURE
     1 TYE         1 TEMP              0 ****  ****    0 ROOT
