@<TRIPOS>MOLECULE
TYF
   22    22     1     0     0
SMALL
No Charge or Current Charge


@<TRIPOS>ATOM
      1 O2           3.9840    -0.7970     0.1050 o          1 TYF      -0.720500
      2 C1           3.2760     0.1940    -0.0330 c          1 TYF       0.691000
      3 O1           3.7070     1.3380    -0.0190 o          1 TYF      -0.720500
      4 C2           1.7630    -0.0400    -0.3930 c3         1 TYF       0.023300
      5 C3           0.8560     0.2060     0.8410 c3         1 TYF      -0.038100
      6 O3          -4.7220     0.1930    -0.3680 oh         1 TYF      -0.552100
      7 C4          -0.6350     0.1940     0.5130 ca         1 TYF      -0.065300
      8 O4           1.5320    -1.3780    -0.9120 oh         1 TYF      -0.707000
      9 C5          -1.4500    -0.8800     0.9250 ca         1 TYF      -0.071000
     10 C6          -2.8250    -0.8820     0.6280 ca         1 TYF      -0.180500
     11 C7          -3.3920     0.1900    -0.0790 ca         1 TYF       0.102100
     12 C8          -2.5880     1.2630    -0.4900 ca         1 TYF      -0.180500
     13 C9          -1.2130     1.2670    -0.1950 ca         1 TYF      -0.071000
     14 H2           1.5020     0.7010    -1.1610 h1         1 TYF       0.031700
     15 H3           1.0900    -0.5380     1.6130 hc         1 TYF       0.050700
     16 H3A          1.1160     1.1790     1.2770 hc         1 TYF       0.050700
     17 HO3         -5.1190    -0.6290    -0.0060 ho         1 TYF       0.450000
     18 HO4          2.3650    -1.8710    -0.7100 ho         1 TYF       0.471000
     19 H5          -1.0170    -1.7150     1.4710 ha         1 TYF       0.115000
     20 H6          -3.4410    -1.7180     0.9510 ha         1 TYF       0.102500
     21 H8          -3.0260     2.0940    -1.0370 ha         1 TYF       0.102500
     22 H9          -0.5950     2.1040    -0.5150 ha         1 TYF       0.115000
@<TRIPOS>BOND
     1     1     2 1   
     2     2     3 1   
     3     2     4 1   
     4     4     5 1   
     5     4     8 1   
     6     4    14 1   
     7     5     7 1   
     8     5    15 1   
     9     5    16 1   
    10     6    11 1   
    11     6    17 1   
    12     7     9 ar  
    13     7    13 ar  
    14     8    18 1   
    15     9    10 ar  
    16     9    19 1   
    17    10    11 ar  
    18    10    20 1   
    19    11    12 ar  
    20    12    13 ar  
    21    12    21 1   
    22    13    22 1   
@<TRIPOS>SUBSTRUCTURE
     1 TYF         1 TEMP              0 ****  ****    0 ROOT
