@<TRIPOS>MOLECULE
TYF
   22    22     1     0     0
SMALL
abcg2


@<TRIPOS>ATOM
      1 O2           3.8570    -1.0570    -0.0730 o          1 TYF      -0.720500
      2 C1           3.2210     0.0210    -0.0590 c          1 TYF       0.691000
      3 O1           3.6610     1.1550     0.1860 o          1 TYF      -0.720500
      4 C2           1.7140    -0.1110    -0.3790 c3         1 TYF       0.023300
      5 C3           0.8680     0.3930     0.7960 c3         1 TYF      -0.038100
      6 O3          -4.6670     0.1140    -0.3850 oh         1 TYF      -0.552100
      7 C4          -0.6050     0.3080     0.5180 ca         1 TYF      -0.065300
      8 O4           1.4150    -1.4470    -0.6870 oh         1 TYF      -0.707000
      9 C5          -1.3410    -0.8350     0.8170 ca         1 TYF      -0.071000
     10 C6          -2.6960    -0.9240     0.5300 ca         1 TYF      -0.180500
     11 C7          -3.3500     0.1420    -0.0800 ca         1 TYF       0.102100
     12 C8          -2.6320     1.2940    -0.3900 ca         1 TYF      -0.180500
     13 C9          -1.2800     1.3640    -0.0910 ca         1 TYF      -0.071000
     14 H2           1.4940     0.5290    -1.2470 h1         1 TYF       0.031700
     15 H3           1.1170    -0.1880     1.6890 hc         1 TYF       0.050700
     16 H3A          1.1480     1.4280     1.0010 hc         1 TYF       0.050700
     17 HO3         -5.0560    -0.7190    -0.0960 ho         1 TYF       0.450000
     18 HO4          2.2670    -1.8910    -0.5230 ho         1 TYF       0.471000
     19 H5          -0.8520    -1.6770     1.2920 ha         1 TYF       0.115000
     20 H6          -3.2420    -1.8270     0.7840 ha         1 TYF       0.102500
     21 H8          -3.1330     2.1320    -0.8580 ha         1 TYF       0.102500
     22 H9          -0.7390     2.2720    -0.3360 ha         1 TYF       0.115000
@<TRIPOS>BOND
     1     1     2 1   
     2     2     3 1   
     3     2     4 1   
     4     4     5 1   
     5     4     8 1   
     6     4    14 1   
     7     5     7 1   
     8     5    15 1   
     9     5    16 1   
    10     6    11 1   
    11     6    17 1   
    12     7     9 ar  
    13     7    13 ar  
    14     8    18 1   
    15     9    10 ar  
    16     9    19 1   
    17    10    11 ar  
    18    10    20 1   
    19    11    12 ar  
    20    12    13 ar  
    21    12    21 1   
    22    13    22 1   
@<TRIPOS>SUBSTRUCTURE
     1 TYF         1 TEMP              0 ****  ****    0 ROOT
