@<TRIPOS>MOLECULE
TYG
   33    35     1     0     0
SMALL
No Charge or Current Charge


@<TRIPOS>ATOM
      1 C4          22.4260    -8.6980   -10.3490 ca         1 TYG      -0.124000
      2 C5          22.3620    -7.9190   -11.5100 ca         1 TYG      -0.048000
      3 C6          22.0390    -8.5160   -12.7460 ca         1 TYG      -0.195600
      4 C7          21.7750    -9.9030   -12.8340 ca         1 TYG       0.182400
      5 C13         20.5350   -11.5000   -19.2950 ca         1 TYG      -0.170000
      6 C17         22.7100   -11.1470   -20.2580 ca         1 TYG      -0.170000
      7 C2          21.8440   -10.6800   -11.6470 ca         1 TYG      -0.057300
      8 C3          22.1680   -10.0730   -10.4170 ca         1 TYG      -0.081000
      9 N8          21.4480   -10.5550   -14.0430 nc         1 TYG      -0.617100
     10 C9          21.4110    -9.7410   -15.0980 cd         1 TYG       0.508900
     11 S11         22.5000   -10.3380   -17.6200 ss         1 TYG      -0.037000
     12 C12         21.8590   -11.0410   -19.1450 ca         1 TYG      -0.087000
     13 C14         20.1280   -12.0360   -20.5300 ca         1 TYG       0.349400
     14 N15         20.9500   -12.1360   -21.6010 nb         1 TYG      -0.666000
     15 C16         22.2210   -11.6960   -21.4570 ca         1 TYG       0.349400
     16 N18         21.6500    -8.3980   -15.0870 ns         1 TYG      -0.430400
     17 C19         21.9700    -7.6950   -13.9810 c          1 TYG       0.579600
     18 O20         22.1790    -6.4920   -14.0200 o          1 TYG      -0.531000
     19 H1          22.6750    -8.2370    -9.3960 ha         1 TYG       0.121000
     20 H2          22.5650    -6.8500   -11.4480 ha         1 TYG       0.137000
     21 H3          20.2570    -9.7390   -16.8850 h1         1 TYG       0.084700
     22 H4          20.7240   -11.3520   -16.3100 h1         1 TYG       0.084700
     23 H6          23.7410   -10.8110   -20.2030 ha         1 TYG       0.124500
     24 H10         22.2200   -10.6700    -9.5090 ha         1 TYG       0.117000
     25 H11         19.1090   -12.3960   -20.6670 h4         1 TYG       0.019600
     26 H12         22.8670   -11.7850   -22.3290 h4         1 TYG       0.019600
     27 H13         21.5990    -7.8690   -15.9450 hn         1 TYG       0.330500
     28 C10         21.0740   -10.3220   -16.4440 c3         1 TYG      -0.029700
     29 C1          21.5700   -12.1840   -11.6760 c3         1 TYG      -0.038800
     30 H5          19.8150   -11.4560   -18.4860 ha         1 TYG       0.124500
     31 H7          22.2750   -12.7000   -12.3370 hc         1 TYG       0.049033
     32 H8          21.6630   -12.6370   -10.6810 hc         1 TYG       0.049033
     33 H9          20.5560   -12.3920   -12.0360 hc         1 TYG       0.049033
@<TRIPOS>BOND
     1     1     2 ar  
     2     1     8 ar  
     3     1    19 1   
     4     2     3 ar  
     5     2    20 1   
     6     3     4 ar  
     7     3    17 1   
     8     4     7 ar  
     9     4     9 1   
    10     5    12 ar  
    11     5    13 ar  
    12     5    30 1   
    13     6    12 ar  
    14     6    15 ar  
    15     6    23 1   
    16     7     8 ar  
    17     7    29 1   
    18     8    24 1   
    19     9    10 2   
    20    10    16 1   
    21    10    28 1   
    22    11    12 1   
    23    11    28 1   
    24    13    14 ar  
    25    13    25 1   
    26    14    15 ar  
    27    15    26 1   
    28    16    17 1   
    29    16    27 1   
    30    17    18 2   
    31    21    28 1   
    32    22    28 1   
    33    29    31 1   
    34    29    32 1   
    35    29    33 1   
@<TRIPOS>SUBSTRUCTURE
     1 TYG         1 TEMP              0 ****  ****    0 ROOT
