@<TRIPOS>MOLECULE
TYG
   33    35     1     0     0
SMALL
bcc


@<TRIPOS>ATOM
      1 C4          22.2190    -8.9920   -10.3900 ca         1 TYG      -0.142000
      2 C5          21.6480    -8.1120   -11.2810 ca         1 TYG      -0.066000
      3 C6          21.4850    -8.4970   -12.6140 ca         1 TYG      -0.195600
      4 C7          21.8980    -9.7660   -13.0470 ca         1 TYG       0.182400
      5 C13         20.8060   -10.7430   -19.4480 ca         1 TYG      -0.253300
      6 C17         22.1280   -12.7110   -19.1940 ca         1 TYG      -0.253300
      7 C2          22.4820   -10.6660   -12.1340 ca         1 TYG      -0.057300
      8 C3          22.6300   -10.2570   -10.8210 ca         1 TYG      -0.099000
      9 N8          21.7520   -10.1690   -14.3560 nc         1 TYG      -0.617100
     10 C9          21.2240    -9.3520   -15.1870 cd         1 TYG       0.508900
     11 S11         21.8130   -11.3480   -16.9010 ss         1 TYG      -0.116000
     12 C12         21.5470   -11.5790   -18.6170 ca         1 TYG       0.039900
     13 C14         20.6900   -11.0750   -20.7900 ca         1 TYG       0.414700
     14 N15         21.2400   -12.1460   -21.3450 nb         1 TYG      -0.666000
     15 C16         21.9440   -12.9420   -20.5440 ca         1 TYG       0.414700
     16 N18         20.7950    -8.1050   -14.8500 ns         1 TYG      -0.497400
     17 C19         20.8830    -7.5800   -13.5770 c          1 TYG       0.722100
     18 O20         20.4860    -6.4570   -13.3320 o          1 TYG      -0.606500
     19 H1          22.3530    -8.7080    -9.3550 ha         1 TYG       0.139000
     20 H2          21.3250    -7.1300   -10.9610 ha         1 TYG       0.155000
     21 H3          21.4790    -8.9850   -17.2710 h1         1 TYG       0.084700
     22 H4          19.9650    -9.7860   -16.8430 h1         1 TYG       0.084700
     23 H6          22.7180   -13.4020   -18.6060 ha         1 TYG       0.142500
     24 H10         23.0780   -10.9370   -10.1070 ha         1 TYG       0.135000
     25 H11         20.1160   -10.4290   -21.4450 h4         1 TYG       0.019600
     26 H12         22.3930   -13.8170   -21.0000 h4         1 TYG       0.019600
     27 H13         20.3880    -7.5110   -15.5630 hn         1 TYG       0.330500
     28 C10         21.0340    -9.7420   -16.6200 c3         1 TYG      -0.077600
     29 C1          22.9250   -12.0240   -12.5850 c3         1 TYG      -0.038800
     30 H5          20.3180    -9.8490   -19.0890 ha         1 TYG       0.142500
     31 H7          23.6600   -11.9570   -13.3890 hc         1 TYG       0.049033
     32 H8          23.3730   -12.5790   -11.7620 hc         1 TYG       0.049033
     33 H9          22.0890   -12.6090   -12.9700 hc         1 TYG       0.049033
@<TRIPOS>BOND
     1     1     2 ar  
     2     1     8 ar  
     3     1    19 1   
     4     2     3 ar  
     5     2    20 1   
     6     3     4 ar  
     7     3    17 1   
     8     4     7 ar  
     9     4     9 1   
    10     5    12 ar  
    11     5    13 ar  
    12     5    30 1   
    13     6    12 ar  
    14     6    15 ar  
    15     6    23 1   
    16     7     8 ar  
    17     7    29 1   
    18     8    24 1   
    19     9    10 2   
    20    10    16 1   
    21    10    28 1   
    22    11    12 1   
    23    11    28 1   
    24    13    14 ar  
    25    13    25 1   
    26    14    15 ar  
    27    15    26 1   
    28    16    17 1   
    29    16    27 1   
    30    17    18 2   
    31    21    28 1   
    32    22    28 1   
    33    29    31 1   
    34    29    32 1   
    35    29    33 1   
@<TRIPOS>SUBSTRUCTURE
     1 TYG         1 TEMP              0 ****  ****    0 ROOT
