@<TRIPOS>MOLECULE
TYI
   23    23     1     0     0
SMALL
bcc


@<TRIPOS>ATOM
      1 N           13.8210    18.8240    29.3110 n8         1 TYI      -0.901800
      2 CA          14.4320    17.9900    30.3310 c3         1 TYI       0.024500
      3 CB          14.0520    16.5200    30.1120 c3         1 TYI      -0.016100
      4 CG          12.5680    16.2970    30.1760 ca         1 TYI      -0.078300
      5 CD1         11.7710    16.3810    29.0380 ca         1 TYI      -0.050000
      6 CE1         10.4000    16.2100    29.1200 ca         1 TYI      -0.009100
      7 CD2         11.9420    16.0420    31.3910 ca         1 TYI      -0.050000
      8 CE2         10.5670    15.8720    31.4670 ca         1 TYI      -0.009100
      9 CZ           9.7550    15.9510    30.3320 ca         1 TYI       0.170100
     10 OH           8.4290    15.7960    30.3150 oh         1 TYI      -0.487100
     11 C           15.9740    18.1750    30.3580 c          1 TYI       0.931600
     12 O           16.6230    17.3000    30.9630 o          1 TYI      -0.830300
     13 OXT         16.4280    19.1980    29.8090 o          1 TYI      -0.830300
     14 I1           9.2440    16.3320    27.3700 i          1 TYI      -0.202400
     15 I2           9.7130    15.4750    33.3520 i          1 TYI      -0.202400
     16 H           14.3540    19.6820    29.2500 hn         1 TYI       0.333800
     17 H2          12.8780    19.0750    29.5760 hn         1 TYI       0.333800
     18 HA          14.0900    18.2590    31.3460 h1         1 TYI      -0.000300
     19 HB2         14.4290    16.1990    29.1380 hc         1 TYI       0.062200
     20 HB3         14.5440    15.9100    30.8690 hc         1 TYI       0.062200
     21 HD1         12.2350    16.5780    28.0810 ha         1 TYI       0.158000
     22 HD2         12.5430    15.9720    32.2890 ha         1 TYI       0.158000
     23 HH           8.0670    15.6120    31.1910 ho         1 TYI       0.433000
@<TRIPOS>BOND
     1     1     2 1   
     2     1    16 1   
     3     1    17 1   
     4     2     3 1   
     5     2    11 1   
     6     2    18 1   
     7     3     4 1   
     8     3    19 1   
     9     3    20 1   
    10     4     5 ar  
    11     4     7 ar  
    12     5     6 ar  
    13     5    21 1   
    14     6     9 ar  
    15     6    14 1   
    16     7     8 ar  
    17     7    22 1   
    18     8     9 ar  
    19     8    15 1   
    20     9    10 1   
    21    10    23 1   
    22    11    12 1   
    23    11    13 1   
@<TRIPOS>SUBSTRUCTURE
     1 TYI         1 TEMP              0 ****  ****    0 ROOT
