@<TRIPOS>MOLECULE
TYI
   23    23     1     0     0
SMALL
No Charge or Current Charge


@<TRIPOS>ATOM
      1 N           13.8230    18.9240    29.3410 n8         1 TYI      -0.901800
      2 CA          14.5160    17.9790    30.2990 c3         1 TYI       0.024500
      3 CB          14.0630    16.5170    30.0310 c3         1 TYI      -0.016100
      4 CG          12.5500    16.3210    30.1260 ca         1 TYI      -0.078300
      5 CD1         11.7830    16.0970    28.9650 ca         1 TYI      -0.050000
      6 CE1         10.3920    15.9150    29.0550 ca         1 TYI      -0.009100
      7 CD2         11.9090    16.3560    31.3810 ca         1 TYI      -0.050000
      8 CE2         10.5190    16.1740    31.4730 ca         1 TYI      -0.009100
      9 CZ           9.7530    15.9520    30.3110 ca         1 TYI       0.170100
     10 OH           8.4000    15.7760    30.4060 oh         1 TYI      -0.487100
     11 C           16.1040    18.1010    30.4160 c          1 TYI       0.931600
     12 O           16.8240    17.3240    29.7930 o          1 TYI      -0.830300
     13 OXT         16.5670    18.9770    31.1430 o          1 TYI      -0.830300
     14 I1           9.2600    15.5780    27.2360 i          1 TYI      -0.202400
     15 I2           9.5740    16.2380    33.4220 i          1 TYI      -0.202400
     16 H           13.9910    19.8900    29.6420 hn         1 TYI       0.333800
     17 H2          12.8090    18.8000    29.4240 hn         1 TYI       0.333800
     18 HA          14.1280    18.2430    31.2920 h1         1 TYI      -0.000300
     19 HB2         14.4280    16.2010    29.0450 hc         1 TYI       0.062200
     20 HB3         14.5560    15.8580    30.7570 hc         1 TYI       0.062200
     21 HD1         12.2640    16.0680    27.9890 ha         1 TYI       0.158000
     22 HD2         12.4890    16.5250    32.2860 ha         1 TYI       0.158000
     23 HH           8.1550    15.8360    31.3540 ho         1 TYI       0.433000
@<TRIPOS>BOND
     1     1     2 1   
     2     1    16 1   
     3     1    17 1   
     4     2     3 1   
     5     2    11 1   
     6     2    18 1   
     7     3     4 1   
     8     3    19 1   
     9     3    20 1   
    10     4     5 ar  
    11     4     7 ar  
    12     5     6 ar  
    13     5    21 1   
    14     6     9 ar  
    15     6    14 1   
    16     7     8 ar  
    17     7    22 1   
    18     8     9 ar  
    19     8    15 1   
    20     9    10 1   
    21    10    23 1   
    22    11    12 1   
    23    11    13 1   
@<TRIPOS>SUBSTRUCTURE
     1 TYI         1 TEMP              0 ****  ****    0 ROOT
