@<TRIPOS>MOLECULE
TYJ
   28    28     1     0     0
SMALL
No Charge or Current Charge


@<TRIPOS>ATOM
      1 N           -8.4670    17.7530    31.7410 n7         1 TYJ      -0.772200
      2 CA          -9.7090    17.8380    32.6030 c3         1 TYJ       0.034500
      3 C           -9.8290    16.7580    33.7660 c          1 TYJ       0.936600
      4 O          -10.4550    15.7190    33.5680 o          1 TYJ      -0.828800
      5 CN          -8.1990    16.4570    31.0870 c3         1 TYJ       0.163100
      6 CB7        -10.9840    17.8910    31.7120 c3         1 TYJ      -0.049100
      7 CG5        -10.9940    19.0700    30.7340 ca         1 TYJ      -0.075300
      8 CD12       -11.3200    20.3800    31.1620 ca         1 TYJ       0.139100
      9 CD21       -10.6770    18.8460    29.3760 ca         1 TYJ      -0.151000
     10 CE11       -11.3230    21.4450    30.2470 ca         1 TYJ      -0.241000
     11 CE21       -10.6800    19.9130    28.4620 ca         1 TYJ      -0.003900
     12 CZ1        -11.0030    21.2110    28.9040 ca         1 TYJ       0.132100
     13 OZ         -10.3700    19.6900    27.1460 oh         1 TYJ      -0.534100
     14 OH1        -11.0050    22.2420    28.0150 oh         1 TYJ      -0.509100
     15 HA          -9.6750    18.8010    33.1290 h1         1 TYJ       0.047700
     16 HCN1        -7.2700    16.5120    30.5050 h1         1 TYJ       0.011367
     17 HCN2        -8.0870    15.6580    31.8320 h1         1 TYJ       0.011367
     18 HCN3        -9.0120    16.1840    30.4030 h1         1 TYJ       0.011367
     19 HB14       -11.0950    16.9430    31.1710 hc         1 TYJ       0.062200
     20 HB26       -11.8630    17.9520    32.3660 hc         1 TYJ       0.062200
     21 HD23       -10.4280    17.8420    29.0390 ha         1 TYJ       0.135000
     22 HE12       -11.5720    22.4520    30.5710 ha         1 TYJ       0.136000
     23 HOZ        -10.1760    18.7360    27.0210 ho         1 TYJ       0.427000
     24 HO1        -10.7570    21.8490    27.1500 ho         1 TYJ       0.434000
     25 H2          -8.5420    18.4690    31.0120 hn         1 TYJ       0.311800
     26 OXT         -9.3240    17.0140    34.8570 o          1 TYJ      -0.828800
     27 OG1        -11.6410    20.6310    32.4650 oh         1 TYJ      -0.471100
     28 HG1        -11.8350    21.5850    32.5560 ho         1 TYJ       0.409000
@<TRIPOS>BOND
     1     1     2 1   
     2     1     5 1   
     3     1    25 1   
     4     2     3 1   
     5     2     6 1   
     6     2    15 1   
     7     3     4 1   
     8     3    26 1   
     9     5    16 1   
    10     5    17 1   
    11     5    18 1   
    12     6     7 1   
    13     6    19 1   
    14     6    20 1   
    15     7     8 ar  
    16     7     9 ar  
    17     8    10 ar  
    18     8    27 1   
    19     9    11 ar  
    20     9    21 1   
    21    10    12 ar  
    22    10    22 1   
    23    11    12 ar  
    24    11    13 1   
    25    12    14 1   
    26    13    23 1   
    27    14    24 1   
    28    27    28 1   
@<TRIPOS>SUBSTRUCTURE
     1 TYJ         1 TEMP              0 ****  ****    0 ROOT
