@<TRIPOS>MOLECULE
TYJ
   28    28     1     0     0
SMALL
bcc


@<TRIPOS>ATOM
      1 N           -8.4940    17.8310    31.9020 n7         1 TYJ      -0.772200
      2 CA          -9.7510    17.8510    32.6280 c3         1 TYJ       0.034500
      3 C           -9.8230    16.7460    33.7240 c          1 TYJ       0.936600
      4 O          -10.9660    16.4240    34.1050 o          1 TYJ      -0.828800
      5 CN          -8.2720    16.6680    31.0660 c3         1 TYJ       0.163100
      6 CB7        -11.0100    17.8660    31.7320 c3         1 TYJ      -0.049100
      7 CG5        -11.0170    18.9980    30.7420 ca         1 TYJ      -0.075300
      8 CD12       -11.3350    20.3030    31.1220 ca         1 TYJ       0.139100
      9 CD21       -10.6810    18.7860    29.4060 ca         1 TYJ      -0.151000
     10 CE11       -11.3090    21.3430    30.1960 ca         1 TYJ      -0.241000
     11 CE21       -10.6490    19.8080    28.4720 ca         1 TYJ      -0.003900
     12 CZ1        -10.9660    21.1060    28.8730 ca         1 TYJ       0.132100
     13 OZ         -10.3340    19.6380    27.1590 oh         1 TYJ      -0.534100
     14 OH1        -10.9540    22.1430    28.0070 oh         1 TYJ      -0.509100
     15 HA          -9.7540    18.7980    33.1850 h1         1 TYJ       0.047700
     16 HCN1        -7.3100    16.7670    30.5610 h1         1 TYJ       0.011367
     17 HCN2        -8.2260    15.7710    31.6820 h1         1 TYJ       0.011367
     18 HCN3        -9.0270    16.4940    30.2880 h1         1 TYJ       0.011367
     19 HB14       -11.0890    16.9210    31.1890 hc         1 TYJ       0.062200
     20 HB26       -11.8900    17.9190    32.3720 hc         1 TYJ       0.062200
     21 HD23       -10.4430    17.7770    29.0850 ha         1 TYJ       0.135000
     22 HE12       -11.5560    22.3550    30.5000 ha         1 TYJ       0.136000
     23 HOZ        -10.0300    18.7390    26.9970 ho         1 TYJ       0.427000
     24 HO1        -10.6620    21.8430    27.1380 ho         1 TYJ       0.434000
     25 H2          -8.4370    18.6620    31.3270 hn         1 TYJ       0.311800
     26 OXT         -8.7460    16.3110    34.1710 o          1 TYJ      -0.828800
     27 OG1        -11.6710    20.5220    32.4180 oh         1 TYJ      -0.471100
     28 HG1        -11.8920    21.4490    32.5540 ho         1 TYJ       0.409000
@<TRIPOS>BOND
     1     1     2 1   
     2     1     5 1   
     3     1    25 1   
     4     2     3 1   
     5     2     6 1   
     6     2    15 1   
     7     3     4 1   
     8     3    26 1   
     9     5    16 1   
    10     5    17 1   
    11     5    18 1   
    12     6     7 1   
    13     6    19 1   
    14     6    20 1   
    15     7     8 ar  
    16     7     9 ar  
    17     8    10 ar  
    18     8    27 1   
    19     9    11 ar  
    20     9    21 1   
    21    10    12 ar  
    22    10    22 1   
    23    11    12 ar  
    24    11    13 1   
    25    12    14 1   
    26    13    23 1   
    27    14    24 1   
    28    27    28 1   
@<TRIPOS>SUBSTRUCTURE
     1 TYJ         1 TEMP              0 ****  ****    0 ROOT
