@<TRIPOS>MOLECULE
TYK
  141   144     1     0     0
SMALL
abcg2


@<TRIPOS>ATOM
      1 C19         66.2940   130.0320    90.5070 c3         1 TYK      -0.196400
      2 C20         67.7690   129.7860    90.3970 c          1 TYK       0.574900
      3 O20         68.6070   130.6500    90.2460 o          1 TYK      -0.524100
      4 C1          68.0040   136.1280    92.1910 c          1 TYK       0.596100
      5 C2          67.2800   135.1790    93.1100 c3         1 TYK      -0.173400
      6 C3          67.3320   133.7440    92.5810 c3         1 TYK       0.181300
      7 C4          66.2890   132.8340    93.2450 c3         1 TYK      -0.062700
      8 C5          66.3170   131.4200    92.6240 c3         1 TYK       0.183300
      9 C6          65.8990   131.3690    91.1400 c3         1 TYK      -0.048700
     10 C7          64.3990   131.6370    90.9520 c3         1 TYK      -0.061400
     11 C8          63.9640   131.8990    89.4980 c3         1 TYK      -0.163700
     12 C9          64.7610   133.0340    88.8830 c          1 TYK       0.568300
     13 C10         64.6540   134.3410    89.5480 ce         1 TYK      -0.321200
     14 C11         65.4870   135.3580    89.2630 cf         1 TYK      -0.094000
     15 C12         65.5320   136.6380    89.9450 cf         1 TYK      -0.104200
     16 C13         66.5970   137.4260    89.6990 c2         1 TYK      -0.177200
     17 C14         66.9590   138.6950    90.4060 c3         1 TYK      -0.041500
     18 C15         68.0770   138.4140    91.4340 c3         1 TYK       0.180300
     19 C16         68.4670   139.6070    92.2870 c3         1 TYK      -0.081400
     20 C17         69.6160   139.2960    93.2440 c3         1 TYK      -0.087100
     21 C18         66.4530   132.8040    94.7670 c3         1 TYK      -0.094100
     22 C21         62.4450   132.1860    89.4170 c3         1 TYK      -0.080100
     23 C22         64.4480   136.9710    90.9360 c3         1 TYK      -0.051900
     24 C23         67.3560   139.7850    89.4130 c3         1 TYK       0.167600
     25 O3          68.6380   133.1900    92.7860 oh         1 TYK      -0.666000
     26 O9          65.4620   132.8500    87.8930 o          1 TYK      -0.532100
     27 O15         67.5690   137.3850    92.3320 os         1 TYK      -0.458100
     28 C1A         66.0420   129.5830    94.1550 c6         1 TYK       0.396300
     29 C2A         64.9880   128.9780    95.0700 c6         1 TYK       0.118300
     30 C3A         65.5820   127.8320    95.9070 c6         1 TYK       0.174500
     31 C4A         66.3280   126.8360    95.0050 c6         1 TYK       0.152300
     32 C5A         67.2890   127.5690    94.0600 c6         1 TYK       0.156300
     33 C6A         67.9700   126.6570    93.0580 c3         1 TYK      -0.086100
     34 O1A         65.4370   130.5400    93.3530 os         1 TYK      -0.445000
     35 O2A         64.4510   130.0140    95.8900 oh         1 TYK      -0.714000
     36 N3A         64.6170   127.1530    96.7630 n3         1 TYK      -0.780600
     37 O4A         67.0990   125.9630    95.8280 os         1 TYK      -0.459000
     38 O5A         66.5740   128.5620    93.3220 os         1 TYK      -0.501000
     39 C1B         67.0060   124.5830    95.5450 c6         1 TYK       0.393300
     40 C2B         68.2290   123.8660    96.1050 c6         1 TYK      -0.083400
     41 C3B         68.1960   123.6090    97.6100 c6         1 TYK       0.153000
     42 C4B         66.8060   123.0750    98.0030 c6         1 TYK       0.109300
     43 C5B         65.6870   123.9540    97.4530 c6         1 TYK       0.181300
     44 C6B         64.3070   123.4130    97.7580 c3         1 TYK      -0.082100
     45 C7B         69.3000   122.6100    98.0110 c3         1 TYK      -0.120100
     46 O3B         68.4130   124.8620    98.2770 oh         1 TYK      -0.644000
     47 O4B         66.6760   123.0500    99.4280 oh         1 TYK      -0.727000
     48 O5B         65.8050   124.0120    96.0210 os         1 TYK      -0.481000
     49 C1C         69.0020   140.3010    87.7960 c6         1 TYK       0.372300
     50 C2C         70.5000   140.1390    87.5420 c6         1 TYK       0.136300
     51 C3C         70.9120   140.9810    86.3330 c6         1 TYK       0.131300
     52 C4C         70.0180   140.6820    85.1260 c6         1 TYK       0.135300
     53 C5C         68.5360   140.8050    85.5040 c6         1 TYK       0.156300
     54 C6C         67.6050   140.3880    84.3870 c3         1 TYK      -0.083100
     55 O1C         68.6080   139.4390    88.8110 os         1 TYK      -0.454000
     56 O2C         71.2710   140.5430    88.6600 os         1 TYK      -0.462000
     57 O3C         70.7870   142.3790    86.5980 os         1 TYK      -0.480000
     58 O4C         70.3570   141.5370    84.0430 oh         1 TYK      -0.710000
     59 O5C         68.2790   139.9470    86.6230 os         1 TYK      -0.494000
     60 H191        65.8350   129.1940    91.0290 hc         1 TYK       0.074200
     61 H192        65.9330   129.9890    89.4720 hc         1 TYK       0.074200
     62 H20         68.0750   128.7240    90.4260 h4         1 TYK      -0.017800
     63 H21         66.2550   135.5210    93.2500 hc         1 TYK       0.082200
     64 H22         67.7730   135.2310    94.0840 hc         1 TYK       0.082200
     65 H3          67.1350   133.7860    91.5080 h1         1 TYK       0.047700
     66 H4          65.3180   133.2850    93.0200 hc         1 TYK       0.052700
     67 H5          67.3340   131.0360    92.7110 h1         1 TYK       0.070700
     68 H6          66.4610   132.1500    90.6270 hc         1 TYK       0.068700
     69 H71         64.0960   132.4930    91.5580 hc         1 TYK       0.053200
     70 H72         63.8290   130.7830    91.3240 hc         1 TYK       0.053200
     71 H8          64.1850   131.0190    88.8940 hc         1 TYK       0.068700
     72 H10         63.9150   134.4340    90.3320 ha         1 TYK       0.183000
     73 H11         66.2430   135.1930    88.5010 ha         1 TYK       0.196000
     74 H13         67.3170   137.0840    88.9640 ha         1 TYK       0.198000
     75 H14         66.1000   139.0800    90.9590 hc         1 TYK       0.067700
     76 H15         68.9490   138.0110    90.9270 h1         1 TYK       0.086700
     77 H161        67.5880   139.9540    92.8380 hc         1 TYK       0.052700
     78 H162        68.7650   140.4170    91.6190 hc         1 TYK       0.052700
     79 H171        69.3530   138.4910    93.9320 hc         1 TYK       0.037700
     80 H172        69.8720   140.1750    93.8370 hc         1 TYK       0.037700
     81 H173        70.5070   138.9910    92.6900 hc         1 TYK       0.037700
     82 H181        65.7510   132.1080    95.2180 hc         1 TYK       0.044367
     83 H182        66.2620   133.7900    95.1910 hc         1 TYK       0.044367
     84 H183        67.4640   132.5060    95.0510 hc         1 TYK       0.044367
     85 H211        61.9110   131.3020    89.0670 hc         1 TYK       0.038700
     86 H212        62.2190   133.0010    88.7280 hc         1 TYK       0.038700
     87 H213        62.0440   132.4600    90.3940 hc         1 TYK       0.038700
     88 H221        63.4930   136.5540    90.6190 hc         1 TYK       0.042367
     89 H222        64.3240   138.0460    91.0480 hc         1 TYK       0.042367
     90 H223        64.6730   136.5580    91.9220 hc         1 TYK       0.042367
     91 H231        67.4530   140.7520    89.9140 h1         1 TYK       0.042700
     92 H232        66.5840   139.8700    88.6450 h1         1 TYK       0.042700
     93 H03         69.2210   133.6200    92.1470 ho         1 TYK       0.466000
     94 HC1A        66.8610   130.0180    94.7440 h2         1 TYK       0.039700
     95 HC2A        64.2000   128.5880    94.4160 h1         1 TYK       0.065700
     96 HC3A        66.3380   128.2730    96.5640 h1         1 TYK       0.072700
     97 HC4A        65.6090   126.2630    94.4120 h1         1 TYK       0.060700
     98 HC5A        68.0480   128.0620    94.6830 h1         1 TYK       0.051700
     99 H6A1        67.2420   126.0250    92.5460 hc         1 TYK       0.046700
    100 H6A2        68.6970   126.0180    93.5570 hc         1 TYK       0.046700
    101 H6A3        68.4950   127.2570    92.3150 hc         1 TYK       0.046700
    102 H02A        64.2180   129.6480    96.7500 ho         1 TYK       0.505000
    103 HC1B        66.9570   124.4360    94.4650 h2         1 TYK       0.059700
    104 H2B1        69.1330   124.4200    95.8500 hc         1 TYK       0.066200
    105 H2B2        68.2860   122.8980    95.6030 hc         1 TYK       0.066200
    106 HC4B        66.6860   122.0660    97.5940 h1         1 TYK       0.046700
    107 HC5B        65.7900   124.9640    97.8530 h1         1 TYK       0.082700
    108 H6B1        64.1860   122.4100    97.3410 hc         1 TYK       0.045033
    109 H6B2        63.5480   124.0640    97.3260 hc         1 TYK       0.045033
    110 H6B3        64.1500   123.3630    98.8340 hc         1 TYK       0.045033
    111 H7B1        68.9140   121.5920    98.0940 hc         1 TYK       0.043033
    112 H7B2        69.7270   122.8940    98.9730 hc         1 TYK       0.043033
    113 H7B3        70.1060   122.6020    97.2760 hc         1 TYK       0.043033
    114 H03B        68.1390   124.7280    99.1960 ho         1 TYK       0.449000
    115 HO4B        67.2310   122.3410    99.7770 ho         1 TYK       0.505000
    116 HC1C        68.7780   141.3420    88.0650 h2         1 TYK       0.046700
    117 HC2C        70.6880   139.0850    87.3050 h1         1 TYK       0.066700
    118 HC3C        71.9500   140.7520    86.0760 h1         1 TYK       0.063700
    119 HC4C        70.2050   139.6590    84.7910 h1         1 TYK       0.087700
    120 HC5C        68.3340   141.8440    85.7940 h1         1 TYK       0.046700
    121 H6C1        67.7990   139.3520    84.0980 hc         1 TYK       0.049367
    122 H6C2        67.7560   141.0260    83.5170 hc         1 TYK       0.049367
    123 H6C3        66.5660   140.4760    84.7060 hc         1 TYK       0.049367
    124 H7C1        70.7700   139.1020    90.0850 h1         1 TYK       0.037700
    125 H7C2        72.3360   139.9270    90.2710 h1         1 TYK       0.037700
    126 H7C3        72.1310   138.6810    89.0150 h1         1 TYK       0.037700
    127 H8C1        72.4260   142.6610    87.8570 h1         1 TYK       0.038367
    128 H8C2        71.7650   144.0990    87.0370 h1         1 TYK       0.038367
    129 H8C3        72.7390   142.9230    86.1210 h1         1 TYK       0.038367
    130 H04C        70.4170   142.4310    84.4140 ho         1 TYK       0.514000
    131 O1          68.8820   135.7910    91.4230 o          1 TYK      -0.501000
    132 C7A         64.5470   127.5760    98.1490 c3         1 TYK       0.180600
    133 C8A         63.3230   126.8510    96.1840 c3         1 TYK       0.180600
    134 C8C         72.0050   143.0420    86.9250 c3         1 TYK       0.149900
    135 H7A1        63.9210   128.4700    98.3240 h1         1 TYK       0.031367
    136 C7C         71.6370   139.4970    89.5540 c3         1 TYK       0.146900
    137 H7A2        65.5490   127.7870    98.5240 h1         1 TYK       0.031367
    138 H7A3        64.1200   126.7720    98.7540 h1         1 TYK       0.031367
    139 H8A1        63.4420   126.3680    95.2140 h1         1 TYK       0.031367
    140 H8A2        62.6790   127.7360    96.0520 h1         1 TYK       0.031367
    141 H8A3        62.7960   126.1570    96.8400 h1         1 TYK       0.031367
@<TRIPOS>BOND
     1     1     2 1   
     2     1     9 1   
     3     1    60 1   
     4     1    61 1   
     5     2     3 2   
     6     2    62 1   
     7     4     5 1   
     8     4    27 1   
     9     4   131 2   
    10     5     6 1   
    11     5    63 1   
    12     5    64 1   
    13     6     7 1   
    14     6    25 1   
    15     6    65 1   
    16     7     8 1   
    17     7    21 1   
    18     7    66 1   
    19     8     9 1   
    20     8    34 1   
    21     8    67 1   
    22     9    10 1   
    23     9    68 1   
    24    10    11 1   
    25    10    69 1   
    26    10    70 1   
    27    11    12 1   
    28    11    22 1   
    29    11    71 1   
    30    12    13 1   
    31    12    26 2   
    32    13    14 2   
    33    13    72 1   
    34    14    15 1   
    35    14    73 1   
    36    15    16 2   
    37    15    23 1   
    38    16    17 1   
    39    16    74 1   
    40    17    18 1   
    41    17    24 1   
    42    17    75 1   
    43    18    19 1   
    44    18    27 1   
    45    18    76 1   
    46    19    20 1   
    47    19    77 1   
    48    19    78 1   
    49    20    79 1   
    50    20    80 1   
    51    20    81 1   
    52    21    82 1   
    53    21    83 1   
    54    21    84 1   
    55    22    85 1   
    56    22    86 1   
    57    22    87 1   
    58    23    88 1   
    59    23    89 1   
    60    23    90 1   
    61    24    55 1   
    62    24    91 1   
    63    24    92 1   
    64    25    93 1   
    65    28    29 1   
    66    28    34 1   
    67    28    38 1   
    68    28    94 1   
    69    29    30 1   
    70    29    35 1   
    71    29    95 1   
    72    30    31 1   
    73    30    36 1   
    74    30    96 1   
    75    31    32 1   
    76    31    37 1   
    77    31    97 1   
    78    32    33 1   
    79    32    38 1   
    80    32    98 1   
    81    33    99 1   
    82    33   100 1   
    83    33   101 1   
    84    35   102 1   
    85    36   132 1   
    86    36   133 1   
    87    37    39 1   
    88    39    40 1   
    89    39    48 1   
    90    39   103 1   
    91    40    41 1   
    92    40   104 1   
    93    40   105 1   
    94    41    42 1   
    95    41    45 1   
    96    41    46 1   
    97    42    43 1   
    98    42    47 1   
    99    42   106 1   
   100    43    44 1   
   101    43    48 1   
   102    43   107 1   
   103    44   108 1   
   104    44   109 1   
   105    44   110 1   
   106    45   111 1   
   107    45   112 1   
   108    45   113 1   
   109    46   114 1   
   110    47   115 1   
   111    49    50 1   
   112    49    55 1   
   113    49    59 1   
   114    49   116 1   
   115    50    51 1   
   116    50    56 1   
   117    50   117 1   
   118    51    52 1   
   119    51    57 1   
   120    51   118 1   
   121    52    53 1   
   122    52    58 1   
   123    52   119 1   
   124    53    54 1   
   125    53    59 1   
   126    53   120 1   
   127    54   121 1   
   128    54   122 1   
   129    54   123 1   
   130    56   136 1   
   131    57   134 1   
   132    58   130 1   
   133   124   136 1   
   134   125   136 1   
   135   126   136 1   
   136   127   134 1   
   137   128   134 1   
   138   129   134 1   
   139   132   135 1   
   140   132   137 1   
   141   132   138 1   
   142   133   139 1   
   143   133   140 1   
   144   133   141 1   
@<TRIPOS>SUBSTRUCTURE
     1 TYK         1 TEMP              0 ****  ****    0 ROOT
