@<TRIPOS>MOLECULE
TYK
  141   144     1     0     0
SMALL
No Charge or Current Charge


@<TRIPOS>ATOM
      1 C19         65.8900   130.0000    90.4250 c3         1 TYK      -0.196400
      2 C20         67.3800   129.6640    90.3210 c          1 TYK       0.574900
      3 O20         68.1120   130.1330    89.4570 o          1 TYK      -0.524100
      4 C1          68.0000   136.2540    92.0620 c          1 TYK       0.596100
      5 C2          67.3260   135.2600    93.0070 c3         1 TYK      -0.173400
      6 C3          67.1880   133.8340    92.4220 c3         1 TYK       0.181300
      7 C4          66.2940   132.8500    93.2540 c3         1 TYK      -0.062700
      8 C5          66.2040   131.4220    92.5800 c3         1 TYK       0.183300
      9 C6          65.6310   131.3780    91.1140 c3         1 TYK      -0.048700
     10 C7          64.1150   131.7630    91.0370 c3         1 TYK      -0.061400
     11 C8          63.5620   132.0960    89.6160 c3         1 TYK      -0.163700
     12 C9          64.3900   133.1900    88.9080 c          1 TYK       0.568300
     13 C10         64.5190   134.5030    89.6030 ce         1 TYK      -0.321200
     14 C11         65.2910   135.5470    89.1790 cf         1 TYK      -0.094000
     15 C12         65.4720   136.8160    89.8850 cf         1 TYK      -0.104200
     16 C13         66.5830   137.5630    89.6540 c2         1 TYK      -0.177200
     17 C14         67.0030   138.8590    90.3470 c3         1 TYK      -0.041500
     18 C15         68.0790   138.6050    91.4510 c3         1 TYK       0.180300
     19 C16         68.3540   139.8330    92.3560 c3         1 TYK      -0.081400
     20 C17         69.4410   139.5860    93.4250 c3         1 TYK      -0.087100
     21 C18         66.7360   132.7790    94.7460 c3         1 TYK      -0.094100
     22 C21         62.0630   132.4790    89.6670 c3         1 TYK      -0.080100
     23 C22         64.3820   137.2540    90.8600 c3         1 TYK      -0.051900
     24 C23         67.4410   139.9150    89.3010 c3         1 TYK       0.167600
     25 O3          68.4960   133.2790    92.2600 oh         1 TYK      -0.666000
     26 O9          64.9430   132.9760    87.8370 o          1 TYK      -0.532100
     27 O15         67.6070   137.5450    92.3150 os         1 TYK      -0.458100
     28 C1A         65.9920   129.6300    94.2760 c6         1 TYK       0.396300
     29 C2A         64.9280   128.9050    95.1660 c6         1 TYK       0.118300
     30 C3A         65.6370   127.8490    96.0880 c6         1 TYK       0.174500
     31 C4A         66.5110   126.8870    95.2070 c6         1 TYK       0.152300
     32 C5A         67.4690   127.7240    94.2960 c6         1 TYK       0.156300
     33 C6A         68.3090   126.8860    93.3000 c3         1 TYK      -0.086100
     34 O1A         65.3570   130.5610    93.3740 os         1 TYK      -0.445000
     35 O2A         64.1270   129.8290    95.9400 oh         1 TYK      -0.714000
     36 N3A         64.6880   127.0980    97.0000 n3         1 TYK      -0.780600
     37 O4A         67.2720   125.9380    96.0680 os         1 TYK      -0.459000
     38 O5A         66.7100   128.6550    93.4990 os         1 TYK      -0.501000
     39 C1B         67.5700   124.5630    95.6150 c6         1 TYK       0.393300
     40 C2B         68.7040   123.9090    96.4460 c6         1 TYK      -0.083400
     41 C3B         68.2890   123.5150    97.8970 c6         1 TYK       0.153000
     42 C4B         66.9020   122.7840    97.8930 c6         1 TYK       0.109300
     43 C5B         65.8650   123.5720    97.0300 c6         1 TYK       0.181300
     44 C6B         64.5170   122.8210    96.8810 c3         1 TYK      -0.082100
     45 C7B         69.3940   122.6210    98.5310 c3         1 TYK      -0.120100
     46 O3B         68.1870   124.6750    98.7240 oh         1 TYK      -0.644000
     47 O4B         66.4250   122.6120    99.2500 oh         1 TYK      -0.727000
     48 O5B         66.3720   123.7670    95.6900 os         1 TYK      -0.481000
     49 C1C         69.2150   140.3370    87.6760 c6         1 TYK       0.372300
     50 C2C         70.6630   139.8980    87.2550 c6         1 TYK       0.136300
     51 C3C         71.1160   140.7320    86.0050 c6         1 TYK       0.131300
     52 C4C         70.0740   140.5910    84.8600 c6         1 TYK       0.135300
     53 C5C         68.6620   140.9880    85.4020 c6         1 TYK       0.156300
     54 C6C         67.5320   140.7650    84.3650 c3         1 TYK      -0.083100
     55 O1C         68.6890   139.5000    88.7210 os         1 TYK      -0.454000
     56 O2C         71.6770   139.9680    88.3040 os         1 TYK      -0.462000
     57 O3C         71.3000   142.1600    86.2520 os         1 TYK      -0.480000
     58 O4C         70.4610   141.4470    83.7670 oh         1 TYK      -0.710000
     59 O5C         68.3250   140.1840    86.5480 os         1 TYK      -0.494000
     60 H191        65.4010   129.2200    91.0190 hc         1 TYK       0.074200
     61 H192        65.4850   130.0110    89.4090 hc         1 TYK       0.074200
     62 H20         67.7710   128.9520    91.0770 h4         1 TYK      -0.017800
     63 H21         66.3590   135.6720    93.3150 hc         1 TYK       0.082200
     64 H22         67.9150   135.2620    93.9300 hc         1 TYK       0.082200
     65 H3          66.7180   133.9580    91.4380 h1         1 TYK       0.047700
     66 H4          65.2870   133.2790    93.2670 hc         1 TYK       0.052700
     67 H5          67.2260   131.0210    92.5540 h1         1 TYK       0.070700
     68 H6          66.1960   132.1090    90.5260 hc         1 TYK       0.068700
     69 H71         63.9190   132.6200    91.6890 hc         1 TYK       0.053200
     70 H72         63.5230   130.9400    91.4570 hc         1 TYK       0.053200
     71 H8          63.6290   131.1950    88.9970 hc         1 TYK       0.068700
     72 H10         63.9710   134.5920    90.5360 ha         1 TYK       0.183000
     73 H11         65.8710   135.4150    88.2610 ha         1 TYK       0.196000
     74 H13         67.3240   137.1960    88.9420 ha         1 TYK       0.198000
     75 H14         66.1390   139.2990    90.8550 hc         1 TYK       0.067700
     76 H15         69.0280   138.3290    90.9710 h1         1 TYK       0.086700
     77 H161        67.4240   140.1400    92.8500 hc         1 TYK       0.052700
     78 H162        68.6770   140.6770    91.7360 hc         1 TYK       0.052700
     79 H171        69.1350   138.7990    94.1240 hc         1 TYK       0.037700
     80 H172        69.6230   140.5010    94.0010 hc         1 TYK       0.037700
     81 H173        70.3850   139.2840    92.9550 hc         1 TYK       0.037700
     82 H181        66.0190   132.2020    95.3410 hc         1 TYK       0.044367
     83 H182        66.7730   133.7720    95.2050 hc         1 TYK       0.044367
     84 H183        67.7260   132.3170    94.8440 hc         1 TYK       0.044367
     85 H211        61.4690   131.6580    90.0870 hc         1 TYK       0.038700
     86 H212        61.6840   132.6890    88.6590 hc         1 TYK       0.038700
     87 H213        61.8980   133.3690    90.2860 hc         1 TYK       0.038700
     88 H221        63.4260   136.7530    90.6720 hc         1 TYK       0.042367
     89 H222        64.1670   138.3250    90.7770 hc         1 TYK       0.042367
     90 H223        64.6720   137.0490    91.8970 hc         1 TYK       0.042367
     91 H231        67.5460   140.8970    89.7800 h1         1 TYK       0.042700
     92 H232        66.6600   140.0010    88.5340 h1         1 TYK       0.042700
     93 H03         69.0050   133.9330    91.7260 ho         1 TYK       0.466000
     94 HC1A        66.7000   130.1640    94.9260 h2         1 TYK       0.039700
     95 HC2A        64.2750   128.3500    94.4760 h1         1 TYK       0.065700
     96 HC3A        66.3520   128.4030    96.7150 h1         1 TYK       0.072700
     97 HC4A        65.8410   126.3030    94.5610 h1         1 TYK       0.060700
     98 HC5A        68.1650   128.2950    94.9290 h1         1 TYK       0.051700
     99 H6A1        67.6760   126.2170    92.7050 hc         1 TYK       0.046700
    100 H6A2        69.0570   126.2810    93.8230 hc         1 TYK       0.046700
    101 H6A3        68.8580   127.5350    92.6080 hc         1 TYK       0.046700
    102 H02A        63.6470   129.2650    96.5860 ho         1 TYK       0.505000
    103 HC1B        67.8980   124.5940    94.5670 h2         1 TYK       0.059700
    104 H2B1        69.5710   124.5810    96.4680 hc         1 TYK       0.066200
    105 H2B2        69.0350   123.0110    95.9080 hc         1 TYK       0.066200
    106 HC4B        67.0370   121.7990    97.4210 h1         1 TYK       0.046700
    107 HC5B        65.6670   124.5530    97.4890 h1         1 TYK       0.082700
    108 H6B1        64.6660   121.8150    96.4700 hc         1 TYK       0.045033
    109 H6B2        63.8360   123.3600    96.2130 hc         1 TYK       0.045033
    110 H6B3        64.0140   122.7170    97.8500 hc         1 TYK       0.045033
    111 H7B1        69.5020   121.6750    97.9860 hc         1 TYK       0.043033
    112 H7B2        69.1720   122.3750    99.5770 hc         1 TYK       0.043033
    113 H7B3        70.3690   123.1230    98.5140 hc         1 TYK       0.043033
    114 H03B        67.4580   124.4480    99.3450 ho         1 TYK       0.449000
    115 HO4B        66.7860   121.7560    99.5790 ho         1 TYK       0.505000
    116 HC1C        69.2290   141.3860    88.0090 h2         1 TYK       0.046700
    117 HC2C        70.5990   138.8470    86.9380 h1         1 TYK       0.066700
    118 HC3C        72.0720   140.3200    85.6490 h1         1 TYK       0.063700
    119 HC4C        70.0410   139.5400    84.5340 h1         1 TYK       0.087700
    120 HC5C        68.6560   142.0470    85.7000 h1         1 TYK       0.046700
    121 H6C1        67.4960   139.7210    84.0320 hc         1 TYK       0.049367
    122 H6C2        67.6760   141.3950    83.4790 hc         1 TYK       0.049367
    123 H6C3        66.5530   141.0170    84.7910 hc         1 TYK       0.049367
    124 H7C1        70.7450   139.5800    90.1420 h1         1 TYK       0.037700
    125 H7C2        72.4500   139.1200    90.0490 h1         1 TYK       0.037700
    126 H7C3        71.2310   138.1300    89.2190 h1         1 TYK       0.037700
    127 H8C1        72.1090   142.3840    88.1810 h1         1 TYK       0.038367
    128 H8C2        72.5300   143.6590    87.0310 h1         1 TYK       0.038367
    129 H8C3        73.3010   142.0650    86.8900 h1         1 TYK       0.038367
    130 H04C        70.8920   142.2200    84.2080 ho         1 TYK       0.514000
    131 O1          68.8230   135.9280    91.2170 o          1 TYK      -0.501000
    132 C7A         64.3230   127.7660    98.2730 c3         1 TYK       0.180600
    133 C8A         63.5620   126.3910    96.3400 c3         1 TYK       0.180600
    134 C8C         72.3620   142.5800    87.1310 c3         1 TYK       0.149900
    135 H7A1        63.5680   128.5470    98.1240 h1         1 TYK       0.031367
    136 C7C         71.5120   139.1580    89.4810 c3         1 TYK       0.146900
    137 H7A2        65.2060   128.2170    98.7440 h1         1 TYK       0.031367
    138 H7A3        63.9080   127.0340    98.9790 h1         1 TYK       0.031367
    139 H8A1        63.9150   125.7770    95.5020 h1         1 TYK       0.031367
    140 H8A2        62.8190   127.1030    95.9560 h1         1 TYK       0.031367
    141 H8A3        63.0570   125.7250    97.0510 h1         1 TYK       0.031367
@<TRIPOS>BOND
     1     1     2 1   
     2     1     9 1   
     3     1    60 1   
     4     1    61 1   
     5     2     3 2   
     6     2    62 1   
     7     4     5 1   
     8     4    27 1   
     9     4   131 2   
    10     5     6 1   
    11     5    63 1   
    12     5    64 1   
    13     6     7 1   
    14     6    25 1   
    15     6    65 1   
    16     7     8 1   
    17     7    21 1   
    18     7    66 1   
    19     8     9 1   
    20     8    34 1   
    21     8    67 1   
    22     9    10 1   
    23     9    68 1   
    24    10    11 1   
    25    10    69 1   
    26    10    70 1   
    27    11    12 1   
    28    11    22 1   
    29    11    71 1   
    30    12    13 1   
    31    12    26 2   
    32    13    14 2   
    33    13    72 1   
    34    14    15 1   
    35    14    73 1   
    36    15    16 2   
    37    15    23 1   
    38    16    17 1   
    39    16    74 1   
    40    17    18 1   
    41    17    24 1   
    42    17    75 1   
    43    18    19 1   
    44    18    27 1   
    45    18    76 1   
    46    19    20 1   
    47    19    77 1   
    48    19    78 1   
    49    20    79 1   
    50    20    80 1   
    51    20    81 1   
    52    21    82 1   
    53    21    83 1   
    54    21    84 1   
    55    22    85 1   
    56    22    86 1   
    57    22    87 1   
    58    23    88 1   
    59    23    89 1   
    60    23    90 1   
    61    24    55 1   
    62    24    91 1   
    63    24    92 1   
    64    25    93 1   
    65    28    29 1   
    66    28    34 1   
    67    28    38 1   
    68    28    94 1   
    69    29    30 1   
    70    29    35 1   
    71    29    95 1   
    72    30    31 1   
    73    30    36 1   
    74    30    96 1   
    75    31    32 1   
    76    31    37 1   
    77    31    97 1   
    78    32    33 1   
    79    32    38 1   
    80    32    98 1   
    81    33    99 1   
    82    33   100 1   
    83    33   101 1   
    84    35   102 1   
    85    36   132 1   
    86    36   133 1   
    87    37    39 1   
    88    39    40 1   
    89    39    48 1   
    90    39   103 1   
    91    40    41 1   
    92    40   104 1   
    93    40   105 1   
    94    41    42 1   
    95    41    45 1   
    96    41    46 1   
    97    42    43 1   
    98    42    47 1   
    99    42   106 1   
   100    43    44 1   
   101    43    48 1   
   102    43   107 1   
   103    44   108 1   
   104    44   109 1   
   105    44   110 1   
   106    45   111 1   
   107    45   112 1   
   108    45   113 1   
   109    46   114 1   
   110    47   115 1   
   111    49    50 1   
   112    49    55 1   
   113    49    59 1   
   114    49   116 1   
   115    50    51 1   
   116    50    56 1   
   117    50   117 1   
   118    51    52 1   
   119    51    57 1   
   120    51   118 1   
   121    52    53 1   
   122    52    58 1   
   123    52   119 1   
   124    53    54 1   
   125    53    59 1   
   126    53   120 1   
   127    54   121 1   
   128    54   122 1   
   129    54   123 1   
   130    56   136 1   
   131    57   134 1   
   132    58   130 1   
   133   124   136 1   
   134   125   136 1   
   135   126   136 1   
   136   127   134 1   
   137   128   134 1   
   138   129   134 1   
   139   132   135 1   
   140   132   137 1   
   141   132   138 1   
   142   133   139 1   
   143   133   140 1   
   144   133   141 1   
@<TRIPOS>SUBSTRUCTURE
     1 TYK         1 TEMP              0 ****  ****    0 ROOT
