@<TRIPOS>MOLECULE
TYL
   20    20     1     0     0
SMALL
No Charge or Current Charge


@<TRIPOS>ATOM
      1 C1           0.3230     0.1110     0.2250 ca         1 TYL      -0.062000
      2 C2          -0.9490     0.1980    -0.3860 ca         1 TYL      -0.100500
      3 C3          -1.0650     0.2050    -1.7890 ca         1 TYL      -0.153000
      4 C4           0.0840     0.1270    -2.5920 ca         1 TYL       0.119100
      5 C5           1.3480     0.0410    -1.9940 ca         1 TYL      -0.153000
      6 C6           1.4670     0.0330    -0.5930 ca         1 TYL      -0.100500
      7 N            0.5200     0.0980     1.6350 ns         1 TYL      -0.153000
      8 C           -0.3620     0.1570     2.7080 c          1 TYL       0.606100
      9 CM           0.3190     0.1120     4.0730 c3         1 TYL      -0.183100
     10 O4          -0.0220     0.1340    -3.9510 oh         1 TYL      -0.534100
     11 O           -1.5800     0.2370     2.6070 o          1 TYL      -0.583100
     12 H2          -1.8590     0.2600     0.2030 ha         1 TYL       0.126000
     13 H3          -2.0510     0.2720    -2.2430 ha         1 TYL       0.121500
     14 H5           2.2390    -0.0200    -2.6150 ha         1 TYL       0.121500
     15 H6           2.4560    -0.0340    -0.1430 ha         1 TYL       0.126000
     16 HN           1.4920     0.0340     1.9090 hn         1 TYL       0.148000
     17 HM1         -0.3940     0.1590     4.9040 hc         1 TYL       0.063033
     18 HM2          0.9480    -0.7840     4.1300 hc         1 TYL       0.063033
     19 HM3          1.0600     0.9190     4.1290 hc         1 TYL       0.063033
     20 HO4         -0.9720     0.1980    -4.1900 ho         1 TYL       0.464000
@<TRIPOS>BOND
     1     1     2 ar  
     2     1     6 ar  
     3     1     7 1   
     4     2     3 ar  
     5     2    12 1   
     6     3     4 ar  
     7     3    13 1   
     8     4     5 ar  
     9     4    10 1   
    10     5     6 ar  
    11     5    14 1   
    12     6    15 1   
    13     7     8 1   
    14     7    16 1   
    15     8     9 1   
    16     8    11 2   
    17     9    17 1   
    18     9    18 1   
    19     9    19 1   
    20    10    20 1   
@<TRIPOS>SUBSTRUCTURE
     1 TYL         1 TEMP              0 ****  ****    0 ROOT
