@<TRIPOS>MOLECULE
TYL
   20    20     1     0     0
SMALL
bcc


@<TRIPOS>ATOM
      1 C1           0.3380     0.1830     0.2420 ca         1 TYL       0.030600
      2 C2          -0.9090     0.3790    -0.3470 ca         1 TYL      -0.118500
      3 C3          -1.0490     0.3240    -1.7270 ca         1 TYL      -0.171000
      4 C4           0.0480     0.0840    -2.5470 ca         1 TYL       0.119100
      5 C5           1.2970    -0.1030    -1.9620 ca         1 TYL      -0.171000
      6 C6           1.4330    -0.0590    -0.5870 ca         1 TYL      -0.118500
      7 N            0.5680     0.2540     1.6260 ns         1 TYL      -0.479100
      8 C           -0.2990    -0.0210     2.6330 c          1 TYL       0.673100
      9 CM           0.3140     0.1030     4.0060 c3         1 TYL      -0.183100
     10 O4          -0.0390     0.0270    -3.8930 oh         1 TYL      -0.495100
     11 O           -1.4630    -0.3340     2.4520 o          1 TYL      -0.583100
     12 H2          -1.7820     0.5860     0.2530 ha         1 TYL       0.144000
     13 H3          -2.0310     0.4810    -2.1610 ha         1 TYL       0.139500
     14 H5           2.1630    -0.2890    -2.5850 ha         1 TYL       0.139500
     15 H6           2.4130    -0.2140    -0.1500 ha         1 TYL       0.144000
     16 HN           1.5220     0.4420     1.8940 hn         1 TYL       0.314500
     17 HM1         -0.4320    -0.1020     4.7700 hc         1 TYL       0.063033
     18 HM2          1.1420    -0.5980     4.1280 hc         1 TYL       0.063033
     19 HM3          0.7110     1.1060     4.1630 hc         1 TYL       0.063033
     20 HO4         -0.9420     0.2090    -4.1780 ho         1 TYL       0.425000
@<TRIPOS>BOND
     1     1     2 ar  
     2     1     6 ar  
     3     1     7 1   
     4     2     3 ar  
     5     2    12 1   
     6     3     4 ar  
     7     3    13 1   
     8     4     5 ar  
     9     4    10 1   
    10     5     6 ar  
    11     5    14 1   
    12     6    15 1   
    13     7     8 1   
    14     7    16 1   
    15     8     9 1   
    16     8    11 2   
    17     9    17 1   
    18     9    18 1   
    19     9    19 1   
    20    10    20 1   
@<TRIPOS>SUBSTRUCTURE
     1 TYL         1 TEMP              0 ****  ****    0 ROOT
