@<TRIPOS>MOLECULE
TYN
   38    40     1     0     0
SMALL
bcc


@<TRIPOS>ATOM
      1 N          106.8080    93.1850    61.1870 n8         1 TYN      -0.863800
      2 CA         106.3280    91.8190    61.4090 c3         1 TYN       0.018500
      3 CB         106.8750    90.9330    60.2960 c3         1 TYN      -0.012100
      4 CG         106.5520    89.4680    60.4250 ca         1 TYN      -0.039300
      5 CD1        105.3460    89.0040    60.9420 ca         1 TYN      -0.091000
      6 CE1        105.0610    87.6470    61.0300 ca         1 TYN      -0.176000
      7 CD2        107.4740    88.5120    59.9980 ca         1 TYN      -0.091000
      8 CE2        107.2050    87.1550    60.0630 ca         1 TYN      -0.176000
      9 CZ         105.9920    86.7190    60.5820 ca         1 TYN       0.091100
     10 OC         105.8040    85.3680    60.6560 os         1 TYN      -0.243200
     11 C          106.8040    91.3410    62.8050 c          1 TYN       0.932600
     12 O          108.0090    91.0400    62.9150 o          1 TYN      -0.828800
     13 OXT        105.9420    91.3250    63.7070 o          1 TYN      -0.828800
     14 O1         102.6140    85.5330    57.7970 os         1 TYN      -0.211400
     15 N1         101.5780    85.0780    58.6980 na         1 TYN      -0.065300
     16 N2         103.6980    85.9410    58.5830 na         1 TYN      -0.034300
     17 C1         102.3180    84.5960    59.8010 ca         1 TYN      -0.177200
     18 C2         101.9060    83.7800    60.8480 ca         1 TYN       0.136600
     19 C3         102.8700    83.5240    61.8340 ca         1 TYN      -0.172000
     20 C4         104.1440    84.0690    61.7840 ca         1 TYN      -0.101000
     21 C5         104.5280    84.8820    60.7240 ca         1 TYN       0.130100
     22 C6         103.5930    85.1240    59.7370 ca         1 TYN      -0.111200
     23 H          106.4380    93.7900    61.9110 hn         1 TYN       0.309300
     24 H2         106.4120    93.5350    60.3220 hn         1 TYN       0.309300
     25 HA         105.2300    91.7760    61.3890 h1         1 TYN      -0.002300
     26 HB2        106.4980    91.2980    59.3320 hc         1 TYN       0.039200
     27 HB3        107.9590    91.0580    60.2600 hc         1 TYN       0.039200
     28 HD1        104.5980    89.7040    61.2910 ha         1 TYN       0.138000
     29 HE1        104.1200    87.3300    61.4650 ha         1 TYN       0.129500
     30 HD2        108.4270    88.8360    59.5970 ha         1 TYN       0.138000
     31 HE2        107.9340    86.4330    59.7190 ha         1 TYN       0.129500
     32 HN31       100.5000    82.5420    61.5990 hn         1 TYN       0.382300
     33 HN32       100.1550    83.0820    60.0740 hn         1 TYN       0.382300
     34 H3         102.6080    82.8760    62.6620 ha         1 TYN       0.131000
     35 H4         104.8540    83.8510    62.5710 ha         1 TYN       0.154000
     36 HN1        101.1380    84.3270    58.1710 hn         1 TYN       0.205700
     37 N3         100.6100    83.3020    60.9460 nv         1 TYN      -0.803200
     38 HN2        103.5370    86.9200    58.8340 hn         1 TYN       0.229700
@<TRIPOS>BOND
     1     1     2 1   
     2     1    23 1   
     3     1    24 1   
     4     2     3 1   
     5     2    11 1   
     6     2    25 1   
     7     3     4 1   
     8     3    26 1   
     9     3    27 1   
    10     4     5 ar  
    11     4     7 ar  
    12     5     6 ar  
    13     5    28 1   
    14     6     9 ar  
    15     6    29 1   
    16     7     8 ar  
    17     7    30 1   
    18     8     9 ar  
    19     8    31 1   
    20     9    10 1   
    21    10    21 1   
    22    11    12 1   
    23    11    13 1   
    24    14    15 1   
    25    14    16 1   
    26    15    17 1   
    27    15    36 1   
    28    16    22 1   
    29    16    38 1   
    30    17    18 ar  
    31    17    22 ar  
    32    18    19 ar  
    33    18    37 1   
    34    19    20 ar  
    35    19    34 1   
    36    20    21 ar  
    37    20    35 1   
    38    21    22 ar  
    39    32    37 1   
    40    33    37 1   
@<TRIPOS>SUBSTRUCTURE
     1 TYN         1 TEMP              0 ****  ****    0 ROOT
