@<TRIPOS>MOLECULE
TYN
   38    40     1     0     0
SMALL
No Charge or Current Charge


@<TRIPOS>ATOM
      1 N          106.5840    93.3540    61.0930 n8         1 TYN      -0.863800
      2 CA         106.6820    91.8870    61.4410 c3         1 TYN       0.018500
      3 CB         106.5380    91.0250    60.1580 c3         1 TYN      -0.012100
      4 CG         106.2750    89.5540    60.4630 ca         1 TYN      -0.039300
      5 CD1        105.0090    89.1420    60.9250 ca         1 TYN      -0.091000
      6 CE1        104.7620    87.7870    61.2070 ca         1 TYN      -0.176000
      7 CD2        107.2930    88.5950    60.2890 ca         1 TYN      -0.091000
      8 CE2        107.0460    87.2400    60.5700 ca         1 TYN      -0.176000
      9 CZ         105.7800    86.8320    61.0200 ca         1 TYN       0.091100
     10 OC         105.5670    85.4990    61.2890 os         1 TYN      -0.243200
     11 C          107.9370    91.4310    62.3120 c          1 TYN       0.932600
     12 O          109.0420    91.3460    61.7810 o          1 TYN      -0.828800
     13 OXT        107.7760    91.2520    63.5160 o          1 TYN      -0.828800
     14 O1         102.8850    85.6550    57.7540 os         1 TYN      -0.211400
     15 N1         101.9600    84.7580    58.4130 na         1 TYN      -0.065300
     16 N2         103.9340    85.7790    58.7430 na         1 TYN      -0.034300
     17 C1         102.4270    84.4050    59.6670 ca         1 TYN      -0.177200
     18 C2         101.8670    83.5540    60.6310 ca         1 TYN       0.136600
     19 C3         102.5800    83.3630    61.8320 ca         1 TYN      -0.172000
     20 C4         103.8190    84.0190    62.0500 ca         1 TYN      -0.101000
     21 C5         104.3570    84.8780    61.0690 ca         1 TYN       0.130100
     22 C6         103.6360    85.0380    59.8720 ca         1 TYN      -0.111200
     23 H          106.5400    93.9040    61.9580 hn         1 TYN       0.309300
     24 H2         105.6920    93.5350    60.6240 hn         1 TYN       0.309300
     25 HA         105.7920    91.6860    62.0540 h1         1 TYN      -0.002300
     26 HB2        105.7070    91.4140    59.5550 hc         1 TYN       0.039200
     27 HB3        107.4350    91.1380    59.5380 hc         1 TYN       0.039200
     28 HD1        104.2170    89.8750    61.0680 ha         1 TYN       0.138000
     29 HE1        103.7840    87.4830    61.5710 ha         1 TYN       0.129500
     30 HD2        108.2770    88.9010    59.9380 ha         1 TYN       0.138000
     31 HE2        107.8340    86.5030    60.4350 ha         1 TYN       0.129500
     32 HN31       100.2450    82.3580    61.1450 hn         1 TYN       0.382300
     33 HN32       100.1240    83.1290    59.5850 hn         1 TYN       0.382300
     34 H3         102.1790    82.7080    62.6020 ha         1 TYN       0.131000
     35 H4         104.3600    83.8650    62.9810 ha         1 TYN       0.154000
     36 HN1        101.6630    84.1260    57.6810 hn         1 TYN       0.205700
     37 N3         100.6690    82.9270    60.4180 nv         1 TYN      -0.803200
     38 HN2        104.1950    86.7570    58.7170 hn         1 TYN       0.229700
@<TRIPOS>BOND
     1     1     2 1   
     2     1    23 1   
     3     1    24 1   
     4     2     3 1   
     5     2    11 1   
     6     2    25 1   
     7     3     4 1   
     8     3    26 1   
     9     3    27 1   
    10     4     5 ar  
    11     4     7 ar  
    12     5     6 ar  
    13     5    28 1   
    14     6     9 ar  
    15     6    29 1   
    16     7     8 ar  
    17     7    30 1   
    18     8     9 ar  
    19     8    31 1   
    20     9    10 1   
    21    10    21 1   
    22    11    12 1   
    23    11    13 1   
    24    14    15 1   
    25    14    16 1   
    26    15    17 1   
    27    15    36 1   
    28    16    22 1   
    29    16    38 1   
    30    17    18 ar  
    31    17    22 ar  
    32    18    19 ar  
    33    18    37 1   
    34    19    20 ar  
    35    19    34 1   
    36    20    21 ar  
    37    20    35 1   
    38    21    22 ar  
    39    32    37 1   
    40    33    37 1   
@<TRIPOS>SUBSTRUCTURE
     1 TYN         1 TEMP              0 ****  ****    0 ROOT
