@<TRIPOS>MOLECULE
TYO
   27    26     1     0     0
SMALL
abcg2


@<TRIPOS>ATOM
      1 N           30.1360    -5.7390    22.4120 n8         1 TYO      -0.980200
      2 CA          28.8490    -6.1410    21.8590 c3         1 TYO       0.018500
      3 CB          27.8900    -4.9460    21.6790 c3         1 TYO      -0.061200
      4 CG          26.5460    -5.2860    21.0870 ce         1 TYO       0.014800
      5 CD1         25.7720    -6.3090    21.8140 ce         1 TYO      -0.263000
      6 CE1         24.6950    -6.0390    22.5490 c2         1 TYO      -0.058900
      7 OE1         23.9790    -6.9090    23.2890 oh         1 TYO      -0.557100
      8 CD2         26.1570    -4.6970    19.9450 cf         1 TYO      -0.211000
      9 CE2         24.9660    -4.9240    19.1280 cf         1 TYO      -0.158000
     10 CZ          23.7020    -5.0000    19.5390 c2         1 TYO      -0.120900
     11 OH          22.6990    -5.0890    18.6160 os         1 TYO      -0.141100
     12 OH1         21.6050    -5.7750    19.1780 oh         1 TYO      -0.451000
     13 C           29.0540    -6.8340    20.4960 c          1 TYO       0.727000
     14 O           29.8480    -6.2740    19.7120 o          1 TYO      -0.731500
     15 OXT         28.3900    -7.8660    20.2760 o          1 TYO      -0.731500
     16 HN1         30.6240    -5.2000    21.7070 hn         1 TYO       0.374000
     17 HN2         29.9900    -5.1130    23.1960 hn         1 TYO       0.374000
     18 HA          28.3930    -6.8510    22.5540 h1         1 TYO       0.045700
     19 HB1         27.7350    -4.4910    22.6650 hc         1 TYO       0.027200
     20 HB2         28.3900    -4.1970    21.0570 hc         1 TYO       0.027200
     21 HD1         26.1790    -7.3180    21.8040 ha         1 TYO       0.218000
     22 HE1         24.2960    -5.0330    22.6320 h4         1 TYO       0.193000
     23 HOE1        24.3480    -7.7960    23.2080 ho         1 TYO       0.452000
     24 HD21        26.8640    -4.0040    19.4950 ha         1 TYO       0.178000
     25 HE2         25.1460    -4.9650    18.0560 ha         1 TYO       0.178000
     26 HZ          23.3820    -4.9120    20.5700 h4         1 TYO       0.196000
     27 HOH1        21.7680    -6.6920    18.9090 ho         1 TYO       0.441000
@<TRIPOS>BOND
     1     1     2 1   
     2     1    16 1   
     3     1    17 1   
     4     2     3 1   
     5     2    13 1   
     6     2    18 1   
     7     3     4 1   
     8     3    19 1   
     9     3    20 1   
    10     4     5 1   
    11     4     8 2   
    12     5     6 2   
    13     5    21 1   
    14     6     7 1   
    15     6    22 1   
    16     7    23 1   
    17     8     9 1   
    18     8    24 1   
    19     9    10 2   
    20     9    25 1   
    21    10    11 1   
    22    10    26 1   
    23    11    12 1   
    24    12    27 1   
    25    13    14 1   
    26    13    15 1   
@<TRIPOS>SUBSTRUCTURE
     1 TYO         1 TEMP              0 ****  ****    0 ROOT
