@<TRIPOS>MOLECULE
TYO
   27    26     1     0     0
SMALL
No Charge or Current Charge


@<TRIPOS>ATOM
      1 N           29.9010    -5.5350    22.6990 n8         1 TYO      -0.980200
      2 CA          28.7390    -6.0150    21.8620 c3         1 TYO       0.018500
      3 CB          27.7290    -4.8540    21.6570 c3         1 TYO      -0.061200
      4 CG          26.4380    -5.2820    20.9570 ce         1 TYO       0.014800
      5 CD1         25.5150    -6.1540    21.7150 ce         1 TYO      -0.263000
      6 CE1         25.4890    -6.3000    23.0580 c2         1 TYO      -0.058900
      7 OE1         24.6270    -7.1280    23.6770 oh         1 TYO      -0.557100
      8 CD2         26.2110    -4.9020    19.6620 cf         1 TYO      -0.211000
      9 CE2         25.0420    -5.1590    18.8180 cf         1 TYO      -0.158000
     10 CZ          23.7590    -5.2180    19.2380 c2         1 TYO      -0.120900
     11 OH          22.7050    -5.4210    18.3910 os         1 TYO      -0.141100
     12 OH1         21.4590    -5.4940    19.1470 oh         1 TYO      -0.451000
     13 C           29.1040    -6.7110    20.4830 c          1 TYO       0.727000
     14 O           29.7190    -6.0610    19.6440 o          1 TYO      -0.731500
     15 OXT         28.8580    -7.9040    20.3500 o          1 TYO      -0.731500
     16 HN1         30.4500    -4.8650    22.1460 hn         1 TYO       0.374000
     17 HN2         29.5480    -4.9780    23.4850 hn         1 TYO       0.374000
     18 HA          28.2270    -6.7800    22.4610 h1         1 TYO       0.045700
     19 HB1         27.4980    -4.3900    22.6230 hc         1 TYO       0.027200
     20 HB2         28.2260    -4.0630    21.0810 hc         1 TYO       0.027200
     21 HD1         24.8230    -6.7360    21.1060 ha         1 TYO       0.218000
     22 HE1         26.1590    -5.7570    23.7310 h4         1 TYO       0.193000
     23 HOE1        24.0780    -7.5730    22.9940 ho         1 TYO       0.452000
     24 HD21        27.0030    -4.3340    19.1690 ha         1 TYO       0.178000
     25 HE2         25.2350    -5.2470    17.7460 ha         1 TYO       0.178000
     26 HZ          23.4950    -5.0690    20.2860 h4         1 TYO       0.196000
     27 HOH1        21.3640    -6.4680    19.2470 ho         1 TYO       0.441000
@<TRIPOS>BOND
     1     1     2 1   
     2     1    16 1   
     3     1    17 1   
     4     2     3 1   
     5     2    13 1   
     6     2    18 1   
     7     3     4 1   
     8     3    19 1   
     9     3    20 1   
    10     4     5 1   
    11     4     8 2   
    12     5     6 2   
    13     5    21 1   
    14     6     7 1   
    15     6    22 1   
    16     7    23 1   
    17     8     9 1   
    18     8    24 1   
    19     9    10 2   
    20     9    25 1   
    21    10    11 1   
    22    10    26 1   
    23    11    12 1   
    24    12    27 1   
    25    13    14 1   
    26    13    15 1   
@<TRIPOS>SUBSTRUCTURE
     1 TYO         1 TEMP              0 ****  ****    0 ROOT
