@<TRIPOS>MOLECULE
TYP
   35    37     1     0     0
SMALL
No Charge or Current Charge


@<TRIPOS>ATOM
      1 N            0.6730    -0.1140    -0.3800 ns         1 TYP      -0.500900
      2 CA          -0.8110    -0.2190    -0.3890 c6         1 TYP       0.041700
      3 C           -1.4260     0.1210    -1.7780 c          1 TYP       0.560000
      4 O           -2.5390     0.6150    -1.9190 o          1 TYP      -0.554000
      5 CB          -1.4470     0.6310     0.7490 c3         1 TYP      -0.026100
      6 CG          -0.8270     0.3660     2.1190 ca         1 TYP      -0.136300
      7 CD1         -0.0400     1.3500     2.7500 ca         1 TYP      -0.068500
      8 CE1          0.5350     1.0970     4.0080 ca         1 TYP      -0.173000
      9 CE2         -0.4580    -1.1210     4.0180 ca         1 TYP      -0.173000
     10 CD2         -1.0340    -0.8710     2.7600 ca         1 TYP      -0.068500
     11 CZ           0.3260    -0.1390     4.6410 ca         1 TYP       0.145100
     12 OH           0.8790    -0.3910     5.8600 oh         1 TYP      -0.531100
     13 NP          -0.5770    -0.0920    -2.8730 n          1 TYP      -0.409800
     14 CAP          0.7380    -0.7670    -2.7350 c5         1 TYP       0.023700
     15 CP           1.5190    -0.5060    -1.3990 c          1 TYP       0.561000
     16 OP           2.7300    -0.5370    -1.2400 o          1 TYP      -0.549000
     17 CBP          1.4730    -0.1810    -3.9720 c5         1 TYP      -0.073400
     18 CGP          0.3370    -0.2210    -5.0330 c5         1 TYP      -0.099400
     19 CDP         -0.8740     0.3560    -4.2480 c5         1 TYP       0.104000
     20 H            1.1250     0.1220     0.4960 hn         1 TYP       0.331500
     21 HA          -1.0590    -1.2740    -0.2080 h1         1 TYP       0.062700
     22 HBC1        -2.5250     0.4330     0.7980 hc         1 TYP       0.074700
     23 HBC2        -1.3560     1.6960     0.4990 hc         1 TYP       0.074700
     24 HD1          0.1300     2.3110     2.2680 ha         1 TYP       0.115000
     25 HE1          1.1410     1.8650     4.4840 ha         1 TYP       0.123500
     26 HE2         -0.6200    -2.0770     4.5080 ha         1 TYP       0.123500
     27 HD2         -1.6400    -1.6400     2.2840 ha         1 TYP       0.115000
     28 HH           1.3870     0.4000     6.1390 ho         1 TYP       0.467000
     29 HAP          0.6060    -1.8540    -2.8270 h1         1 TYP       0.070700
     30 HBP1         1.8140     0.8460    -3.7910 hc         1 TYP       0.069700
     31 HBP2         2.3470    -0.7740    -4.2620 hc         1 TYP       0.069700
     32 HGP1         0.5710     0.3640    -5.9290 hc         1 TYP       0.056700
     33 HGP2         0.1390    -1.2500    -5.3570 hc         1 TYP       0.056700
     34 HDP1        -0.8990     1.4530    -4.2960 h1         1 TYP       0.058700
     35 HDP2        -1.8320    -0.0330    -4.6170 h1         1 TYP       0.058700
@<TRIPOS>BOND
     1     1     2 1   
     2     1    15 1   
     3     1    20 1   
     4     2     3 1   
     5     2     5 1   
     6     2    21 1   
     7     3     4 2   
     8     3    13 1   
     9     5     6 1   
    10     5    22 1   
    11     5    23 1   
    12     6     7 ar  
    13     6    10 ar  
    14     7     8 ar  
    15     7    24 1   
    16     8    11 ar  
    17     8    25 1   
    18     9    10 ar  
    19     9    11 ar  
    20     9    26 1   
    21    10    27 1   
    22    11    12 1   
    23    12    28 1   
    24    13    14 1   
    25    13    19 1   
    26    14    15 1   
    27    14    17 1   
    28    14    29 1   
    29    15    16 2   
    30    17    18 1   
    31    17    30 1   
    32    17    31 1   
    33    18    19 1   
    34    18    32 1   
    35    18    33 1   
    36    19    34 1   
    37    19    35 1   
@<TRIPOS>SUBSTRUCTURE
     1 TYP         1 TEMP              0 ****  ****    0 ROOT
