@<TRIPOS>MOLECULE
TYP
   35    37     1     0     0
SMALL
bcc


@<TRIPOS>ATOM
      1 N            0.7040     0.2220    -0.4110 ns         1 TYP      -0.567900
      2 CA          -0.7160    -0.0810    -0.3900 c6         1 TYP       0.041700
      3 C           -1.3320     0.2260    -1.7520 c          1 TYP       0.702500
      4 O           -2.4620     0.6740    -1.8760 o          1 TYP      -0.629500
      5 CB          -1.4060     0.7010     0.7270 c3         1 TYP      -0.026100
      6 CG          -0.8350     0.3800     2.0810 ca         1 TYP      -0.136300
      7 CD1          0.0180     1.2610     2.7370 ca         1 TYP      -0.086500
      8 CE1          0.5720     0.9520     3.9730 ca         1 TYP      -0.191000
      9 CE2         -0.5820    -1.1560     3.9410 ca         1 TYP      -0.191000
     10 CD2         -1.1240    -0.8320     2.7110 ca         1 TYP      -0.086500
     11 CZ           0.2760    -0.2630     4.5820 ca         1 TYP       0.145100
     12 OH           0.7810    -0.6230     5.7790 oh         1 TYP      -0.492100
     13 NP          -0.5350    -0.0550    -2.7840 n          1 TYP      -0.476800
     14 CAP          0.8040    -0.6140    -2.6500 c5         1 TYP       0.023700
     15 CP           1.5200    -0.0740    -1.4330 c          1 TYP       0.703500
     16 OP           2.7320     0.0570    -1.4000 o          1 TYP      -0.624500
     17 CBP          1.4520    -0.2780    -3.9860 c5         1 TYP      -0.073400
     18 CGP          0.2770    -0.3870    -4.9540 c5         1 TYP      -0.099400
     19 CDP         -0.8990     0.1980    -4.1740 c5         1 TYP       0.104000
     20 H            1.1360     0.4920     0.4620 hn         1 TYP       0.331500
     21 HA          -0.8680    -1.1550    -0.2050 h1         1 TYP       0.062700
     22 HBC1        -2.4680     0.4580     0.6990 hc         1 TYP       0.074700
     23 HBC2        -1.3190     1.7720     0.5270 hc         1 TYP       0.074700
     24 HD1          0.2570     2.2160     2.2840 ha         1 TYP       0.133000
     25 HE1          1.2320     1.6620     4.4570 ha         1 TYP       0.141500
     26 HE2         -0.8230    -2.1020     4.4120 ha         1 TYP       0.141500
     27 HD2         -1.7900    -1.5390     2.2310 ha         1 TYP       0.133000
     28 HH           1.3630     0.0660     6.1190 ho         1 TYP       0.428000
     29 HAP          0.7460    -1.7060    -2.5310 h1         1 TYP       0.070700
     30 HBP1         1.8420     0.7420    -3.9680 hc         1 TYP       0.069700
     31 HBP2         2.2720    -0.9510    -4.2270 hc         1 TYP       0.069700
     32 HGP1         0.4510     0.1410    -5.8900 hc         1 TYP       0.056700
     33 HGP2         0.0830    -1.4340    -5.1940 hc         1 TYP       0.056700
     34 HDP1        -1.0050     1.2720    -4.3430 h1         1 TYP       0.058700
     35 HDP2        -1.8480    -0.2770    -4.4240 h1         1 TYP       0.058700
@<TRIPOS>BOND
     1     1     2 1   
     2     1    15 1   
     3     1    20 1   
     4     2     3 1   
     5     2     5 1   
     6     2    21 1   
     7     3     4 2   
     8     3    13 1   
     9     5     6 1   
    10     5    22 1   
    11     5    23 1   
    12     6     7 ar  
    13     6    10 ar  
    14     7     8 ar  
    15     7    24 1   
    16     8    11 ar  
    17     8    25 1   
    18     9    10 ar  
    19     9    11 ar  
    20     9    26 1   
    21    10    27 1   
    22    11    12 1   
    23    12    28 1   
    24    13    14 1   
    25    13    19 1   
    26    14    15 1   
    27    14    17 1   
    28    14    29 1   
    29    15    16 2   
    30    17    18 1   
    31    17    30 1   
    32    17    31 1   
    33    18    19 1   
    34    18    32 1   
    35    18    33 1   
    36    19    34 1   
    37    19    35 1   
@<TRIPOS>SUBSTRUCTURE
     1 TYP         1 TEMP              0 ****  ****    0 ROOT
