@<TRIPOS>MOLECULE
TYQ
   26    26     1     0     0
SMALL
bcc


@<TRIPOS>ATOM
      1 N           66.5490    76.5810    -3.1800 n8         1 TYQ      -0.878800
      2 CA          65.8410    75.4020    -2.7170 c3         1 TYQ       0.023500
      3 C           64.5340    75.7880    -1.9810 c          1 TYQ       0.934600
      4 O           64.4910    76.9180    -1.4550 o          1 TYQ      -0.835300
      5 CB          66.6610    74.4980    -1.7640 c3         1 TYQ      -0.053100
      6 CG          67.9750    74.0530    -2.3380 ca         1 TYQ      -0.106300
      7 CD1         68.0660    72.9920    -3.2460 ca         1 TYQ       0.172100
      8 CD2         69.1550    74.7140    -2.0200 ca         1 TYQ      -0.050000
      9 CE1         69.2900    72.6230    -3.7920 ca         1 TYQ      -0.264000
     10 CE2         70.3970    74.3740    -2.5440 ca         1 TYQ      -0.051400
     11 CZ          70.4500    73.3080    -3.4480 ca         1 TYQ       0.115100
     12 OZ          66.9270    72.3390    -3.5640 oh         1 TYQ      -0.466100
     13 N5          71.5510    75.1110    -2.1480 nv         1 TYQ      -0.808200
     14 OH          71.6040    72.9000    -4.0130 oh         1 TYQ      -0.504100
     15 OXT         63.6540    74.9060    -1.9390 o          1 TYQ      -0.835300
     16 H           67.4980    76.3380    -3.4400 hn         1 TYQ       0.322300
     17 H2          66.6150    77.2370    -2.4120 hn         1 TYQ       0.322300
     18 HA          65.5700    74.8000    -3.5900 h1         1 TYQ       0.052700
     19 HB2         66.8560    75.0560    -0.8430 hc         1 TYQ       0.057700
     20 HB3         66.0500    73.6370    -1.4830 hc         1 TYQ       0.057700
     21 HD2         69.1180    75.5360    -1.3140 ha         1 TYQ       0.148000
     22 HE1         69.3510    71.7970    -4.4930 ha         1 TYQ       0.133000
     23 HZ          67.1080    71.6250    -4.1850 ho         1 TYQ       0.411000
     24 HN51        72.0010    75.5890    -2.9180 hn         1 TYQ       0.350300
     25 HN52        72.2440    74.5420    -1.6780 hn         1 TYQ       0.350300
     26 HH          72.3310    73.4520    -3.7000 ho         1 TYQ       0.407000
@<TRIPOS>BOND
     1     1     2 1   
     2     1    16 1   
     3     1    17 1   
     4     2     3 1   
     5     2     5 1   
     6     2    18 1   
     7     3     4 1   
     8     3    15 1   
     9     5     6 1   
    10     5    19 1   
    11     5    20 1   
    12     6     7 ar  
    13     6     8 ar  
    14     7     9 ar  
    15     7    12 1   
    16     8    10 ar  
    17     8    21 1   
    18     9    11 ar  
    19     9    22 1   
    20    10    11 ar  
    21    10    13 1   
    22    11    14 1   
    23    12    23 1   
    24    13    24 1   
    25    13    25 1   
    26    14    26 1   
@<TRIPOS>SUBSTRUCTURE
     1 TYQ         1 TEMP              0 ****  ****    0 ROOT
