@<TRIPOS>MOLECULE
TYQ
   26    26     1     0     0
SMALL
No Charge or Current Charge


@<TRIPOS>ATOM
      1 N           66.5930    76.5700    -3.3060 n8         1 TYQ      -0.878800
      2 CA          65.8230    75.4130    -2.7080 c3         1 TYQ       0.023500
      3 C           64.4100    75.7390    -2.0530 c          1 TYQ       0.934600
      4 O           64.3630    76.5030    -1.0910 o          1 TYQ      -0.835300
      5 CB          66.7230    74.6310    -1.7130 c3         1 TYQ      -0.053100
      6 CG          68.0270    74.1160    -2.3330 ca         1 TYQ      -0.106300
      7 CD1         68.0460    72.9680    -3.1580 ca         1 TYQ       0.172100
      8 CD2         69.2370    74.7910    -2.0680 ca         1 TYQ      -0.050000
      9 CE1         69.2520    72.5180    -3.7140 ca         1 TYQ      -0.264000
     10 CE2         70.4550    74.3410    -2.6150 ca         1 TYQ      -0.051400
     11 CZ          70.4480    73.1990    -3.4520 ca         1 TYQ       0.115100
     12 OZ          66.9000    72.2800    -3.4270 oh         1 TYQ      -0.466100
     13 N5          71.6210    75.0250    -2.3090 nv         1 TYQ      -0.808200
     14 OH          71.5960    72.7530    -4.0360 oh         1 TYQ      -0.504100
     15 OXT         63.3980    75.2730    -2.5680 o          1 TYQ      -0.835300
     16 H           67.5260    76.2420    -3.5710 hn         1 TYQ       0.322300
     17 H2          66.7610    77.2700    -2.5760 hn         1 TYQ       0.322300
     18 HA          65.6070    74.7290    -3.5390 h1         1 TYQ       0.052700
     19 HB2         66.9400    75.2710    -0.8480 hc         1 TYQ       0.057700
     20 HB3         66.1490    73.7870    -1.3100 hc         1 TYQ       0.057700
     21 HD2         69.2310    75.6690    -1.4260 ha         1 TYQ       0.148000
     22 HE1         69.2660    71.6420    -4.3560 ha         1 TYQ       0.133000
     23 HZ          67.1260    71.5250    -4.0070 ho         1 TYQ       0.411000
     24 HN51        71.5840    75.8240    -1.6800 hn         1 TYQ       0.350300
     25 HN52        72.5320    74.5910    -2.4330 hn         1 TYQ       0.350300
     26 HH          72.2720    73.4480    -3.9080 ho         1 TYQ       0.407000
@<TRIPOS>BOND
     1     1     2 1   
     2     1    16 1   
     3     1    17 1   
     4     2     3 1   
     5     2     5 1   
     6     2    18 1   
     7     3     4 1   
     8     3    15 1   
     9     5     6 1   
    10     5    19 1   
    11     5    20 1   
    12     6     7 ar  
    13     6     8 ar  
    14     7     9 ar  
    15     7    12 1   
    16     8    10 ar  
    17     8    21 1   
    18     9    11 ar  
    19     9    22 1   
    20    10    11 ar  
    21    10    13 1   
    22    11    14 1   
    23    12    23 1   
    24    13    24 1   
    25    13    25 1   
    26    14    26 1   
@<TRIPOS>SUBSTRUCTURE
     1 TYQ         1 TEMP              0 ****  ****    0 ROOT
