@<TRIPOS>MOLECULE
TYS
   26    26     1     0     0
SMALL
bcc


@<TRIPOS>ATOM
      1 N           15.8630     1.7650    -4.6300 n8         1 TYS      -0.871800
      2 CA          16.5340     1.7830    -3.3400 c3         1 TYS       0.015500
      3 CB          15.4950     1.7640    -2.2100 c3         1 TYS      -0.009100
      4 CG          14.5630     2.9420    -2.2240 ca         1 TYS      -0.069300
      5 CD1         15.0110     4.1990    -1.8180 ca         1 TYS      -0.122500
      6 CD2         13.2400     2.8260    -2.6370 ca         1 TYS      -0.122500
      7 CE1         14.1660     5.2980    -1.8040 ca         1 TYS      -0.155500
      8 CE2         12.3790     3.9150    -2.6220 ca         1 TYS      -0.155500
      9 CZ          12.8430     5.1540    -2.2030 ca         1 TYS       0.155100
     10 OH          12.0050     6.2380    -2.2140 os         1 TYS      -0.490800
     11 S           11.1880     6.5800    -0.7880 s6         1 TYS       1.496300
     12 O1          12.2390     6.8170     0.2010 o          1 TYS      -0.707533
     13 O2          10.3810     5.3900    -0.5270 o          1 TYS      -0.707533
     14 O3          10.4410     7.7640    -1.1950 o          1 TYS      -0.707533
     15 C           17.5730     0.6510    -3.1030 c          1 TYS       0.901600
     16 O           18.2570     0.7570    -2.0630 o          1 TYS      -0.850300
     17 OXT         17.6330    -0.2600    -3.9510 o          1 TYS      -0.850300
     18 H           16.5600     1.8730    -5.3560 hn         1 TYS       0.317300
     19 HN2         15.4920     0.8330    -4.7770 hn         1 TYS       0.317300
     20 HA          17.0770     2.7330    -3.2670 h1         1 TYS       0.041700
     21 HB2         14.9140     0.8380    -2.2750 hc         1 TYS       0.041700
     22 HB3         16.0250     1.7340    -1.2570 hc         1 TYS       0.041700
     23 HD1         16.0390     4.3200    -1.4960 ha         1 TYS       0.114000
     24 HD2         12.8680     1.8630    -2.9650 ha         1 TYS       0.114000
     25 HE1         14.5320     6.2650    -1.4860 ha         1 TYS       0.131500
     26 HE2         11.3510     3.8040    -2.9430 ha         1 TYS       0.131500
@<TRIPOS>BOND
     1     1     2 1   
     2     1    18 1   
     3     1    19 1   
     4     2     3 1   
     5     2    15 1   
     6     2    20 1   
     7     3     4 1   
     8     3    21 1   
     9     3    22 1   
    10     4     5 ar  
    11     4     6 ar  
    12     5     7 ar  
    13     5    23 1   
    14     6     8 ar  
    15     6    24 1   
    16     7     9 ar  
    17     7    25 1   
    18     8     9 ar  
    19     8    26 1   
    20     9    10 1   
    21    10    11 1   
    22    11    12 1   
    23    11    13 1   
    24    11    14 1   
    25    15    16 1   
    26    15    17 1   
@<TRIPOS>SUBSTRUCTURE
     1 TYS         1 TEMP              0 ****  ****    0 ROOT
