@<TRIPOS>MOLECULE
TYS
   26    26     1     0     0
SMALL
No Charge or Current Charge


@<TRIPOS>ATOM
      1 N           16.0550     1.8780    -4.7140 n8         1 TYS      -0.982200
      2 CA          16.5710     1.7770    -3.2960 c3         1 TYS       0.015500
      3 CB          15.4040     1.6710    -2.2760 c3         1 TYS      -0.009100
      4 CG          14.4740     2.8840    -2.2580 ca         1 TYS      -0.069300
      5 CD1         14.9350     4.1230    -1.7660 ca         1 TYS      -0.104500
      6 CD2         13.1450     2.7750    -2.7140 ca         1 TYS      -0.104500
      7 CE1         14.0790     5.2380    -1.7330 ca         1 TYS      -0.137500
      8 CE2         12.2890     3.8910    -2.6820 ca         1 TYS      -0.137500
      9 CZ          12.7500     5.1190    -2.1780 ca         1 TYS       0.155100
     10 OH          11.9130     6.2060    -2.1820 os         1 TYS      -0.490800
     11 S           11.2630     6.7140    -0.7560 s6         1 TYS       1.496300
     12 O1          12.3540     7.4520    -0.1020 o          1 TYS      -0.707533
     13 O2          10.8700     5.4790    -0.0590 o          1 TYS      -0.707533
     14 O3          10.1320     7.5600    -1.1680 o          1 TYS      -0.707533
     15 C           17.6270     0.6290    -3.0260 c          1 TYS       0.691000
     16 O           18.7170     0.9410    -2.5650 o          1 TYS      -0.745000
     17 OXT         17.3600    -0.5090    -3.3900 o          1 TYS      -0.745000
     18 H           16.8520     1.9920    -5.3510 hn         1 TYS       0.372500
     19 HN2         15.6690     0.9650    -4.9810 hn         1 TYS       0.372500
     20 HA          17.0930     2.7210    -3.0890 h1         1 TYS       0.041700
     21 HB2         14.8360     0.7530    -2.4730 hc         1 TYS       0.041700
     22 HB3         15.8320     1.5420    -1.2740 hc         1 TYS       0.041700
     23 HD1         15.9580     4.2210    -1.4110 ha         1 TYS       0.096000
     24 HD2         12.7750     1.8280    -3.0990 ha         1 TYS       0.096000
     25 HE1         14.4480     6.1920    -1.3650 ha         1 TYS       0.113500
     26 HE2         11.2680     3.8030    -3.0420 ha         1 TYS       0.113500
@<TRIPOS>BOND
     1     1     2 1   
     2     1    18 1   
     3     1    19 1   
     4     2     3 1   
     5     2    15 1   
     6     2    20 1   
     7     3     4 1   
     8     3    21 1   
     9     3    22 1   
    10     4     5 ar  
    11     4     6 ar  
    12     5     7 ar  
    13     5    23 1   
    14     6     8 ar  
    15     6    24 1   
    16     7     9 ar  
    17     7    25 1   
    18     8     9 ar  
    19     8    26 1   
    20     9    10 1   
    21    10    11 1   
    22    11    12 1   
    23    11    13 1   
    24    11    14 1   
    25    15    16 1   
    26    15    17 1   
@<TRIPOS>SUBSTRUCTURE
     1 TYS         1 TEMP              0 ****  ****    0 ROOT
