@<TRIPOS>MOLECULE
TYT
   43    45     1     0     0
SMALL
abcg2


@<TRIPOS>ATOM
      1 N1           3.2190    -1.8880    -1.7080 n8         1 TYT      -1.003200
      2 C1           2.7850    -1.5130    -0.3700 c3         1 TYT       0.007500
      3 C2           2.3940    -2.7000     0.5490 c          1 TYT       0.695000
      4 O1           2.2460    -2.4280     1.7590 o          1 TYT      -0.733500
      5 O2           2.2410    -3.8150     0.0140 o          1 TYT      -0.733500
      6 C3           1.6000    -0.5470    -0.4570 c3         1 TYT      -0.039400
      7 C4           1.9030     0.7630    -1.2020 c6         1 TYT      -0.160700
      8 C5           2.7840     1.6530    -0.3590 c          1 TYT       0.597300
      9 O3           4.0030     1.5970    -0.4080 o          1 TYT      -0.537100
     10 C6           2.1190     2.5750     0.5530 ce         1 TYT      -0.398200
     11 C7           0.7770     2.7250     0.5970 cf         1 TYT       0.036500
     12 O4           0.1560     3.5710     1.4110 oh         1 TYT      -0.535100
     13 C8          -0.1020     1.9560    -0.3240 cf         1 TYT       0.506600
     14 N2          -1.3170     1.6410    -0.1660 n2         1 TYT      -0.572900
     15 C9          -2.1210     1.8690     0.9570 cx         1 TYT       0.081500
     16 C10         -3.5650     2.1670     0.6640 cx         1 TYT      -0.112400
     17 C11         -3.2100     0.8220     1.1940 cx         1 TYT      -0.053400
     18 C12         -3.2870    -0.4330     0.4080 ca         1 TYT      -0.040300
     19 C13         -3.2080    -1.6460     1.0910 ca         1 TYT      -0.090500
     20 C14         -3.2650    -2.8580     0.4170 ca         1 TYT      -0.110000
     21 C15         -3.4050    -2.8790    -0.9640 ca         1 TYT      -0.105000
     22 C16         -3.4900    -1.6780    -1.6550 ca         1 TYT      -0.110000
     23 C17         -3.4330    -0.4680    -0.9790 ca         1 TYT      -0.090500
     24 C18          0.6140     1.5070    -1.5640 c6         1 TYT      -0.114700
     25 H1           4.1420    -2.3000    -1.6470 hn         1 TYT       0.383500
     26 H2           2.6250    -2.6500    -2.0170 hn         1 TYT       0.383500
     27 H3           3.6160    -0.9900     0.1130 h1         1 TYT       0.047700
     28 H4           0.7760    -1.0460    -0.9810 hc         1 TYT       0.050700
     29 H5           1.2340    -0.3380     0.5500 hc         1 TYT       0.050700
     30 H6           2.4430     0.5090    -2.1160 hc         1 TYT       0.099700
     31 H7           2.7520     3.1640     1.2080 ha         1 TYT       0.183000
     32 H20          0.7890     4.0250     1.9850 ho         1 TYT       0.465000
     33 H8          -1.7070     2.2970     1.8610 h1         1 TYT       0.082700
     34 H9          -3.8410     2.2580    -0.3780 hc         1 TYT       0.070700
     35 H10         -4.0770     2.8540     1.3250 hc         1 TYT       0.070700
     36 H11         -3.4150     0.6770     2.2490 hc         1 TYT       0.072700
     37 H12         -3.1030    -1.6420     2.1700 ha         1 TYT       0.108500
     38 H13         -3.2010    -3.7850     0.9730 ha         1 TYT       0.107000
     39 H14         -3.4540    -3.8210    -1.4960 ha         1 TYT       0.107000
     40 H15         -3.6030    -1.6810    -2.7320 ha         1 TYT       0.107000
     41 H16         -3.5030     0.4510    -1.5450 ha         1 TYT       0.108500
     42 H17          0.8580     2.3760    -2.1840 hc         1 TYT       0.059700
     43 H18         -0.0490     0.8600    -2.1380 hc         1 TYT       0.059700
@<TRIPOS>BOND
     1     1     2 1   
     2     1    25 1   
     3     1    26 1   
     4     2     3 1   
     5     2     6 1   
     6     2    27 1   
     7     3     4 1   
     8     3     5 1   
     9     6     7 1   
    10     6    28 1   
    11     6    29 1   
    12     7     8 1   
    13     7    24 1   
    14     7    30 1   
    15     8     9 2   
    16     8    10 1   
    17    10    11 2   
    18    10    31 1   
    19    11    12 1   
    20    11    13 1   
    21    12    32 1   
    22    13    14 2   
    23    13    24 1   
    24    14    15 1   
    25    15    16 1   
    26    15    17 1   
    27    15    33 1   
    28    16    17 1   
    29    16    34 1   
    30    16    35 1   
    31    17    18 1   
    32    17    36 1   
    33    18    19 ar  
    34    18    23 ar  
    35    19    20 ar  
    36    19    37 1   
    37    20    21 ar  
    38    20    38 1   
    39    21    22 ar  
    40    21    39 1   
    41    22    23 ar  
    42    22    40 1   
    43    23    41 1   
    44    24    42 1   
    45    24    43 1   
@<TRIPOS>SUBSTRUCTURE
     1 TYT         1 TEMP              0 ****  ****    0 ROOT
