@<TRIPOS>MOLECULE
TYT
   43    45     1     0     0
SMALL
No Charge or Current Charge


@<TRIPOS>ATOM
      1 N1           4.5910    -1.6560    -1.1650 n8         1 TYT      -1.003200
      2 C1           3.9360    -1.1230     0.0880 c3         1 TYT       0.007500
      3 C2           4.0050    -2.0640     1.3610 c          1 TYT       0.695000
      4 O1           4.4660    -1.6040     2.3960 o          1 TYT      -0.733500
      5 O2           3.6990    -3.2430     1.2320 o          1 TYT      -0.733500
      6 C3           2.4630    -0.7130    -0.1940 c3         1 TYT      -0.039400
      7 C4           2.2410     0.4470    -1.2290 c6         1 TYT      -0.160700
      8 C5           2.8600     1.7490    -0.6750 c          1 TYT       0.597300
      9 O3           4.0140     2.0810    -0.9080 o          1 TYT      -0.537100
     10 C6           1.9670     2.5920     0.1640 ce         1 TYT      -0.398200
     11 C7           0.6420     2.3360     0.3520 cf         1 TYT       0.036500
     12 O4          -0.0570     3.1960     1.1230 oh         1 TYT      -0.535100
     13 C8          -0.0540     1.1950    -0.3300 cf         1 TYT       0.506600
     14 N2          -1.2600     0.7560    -0.0720 n2         1 TYT      -0.572900
     15 C9          -2.0730     1.1530     1.0790 cx         1 TYT       0.081500
     16 C10         -3.2480     2.0690     0.8370 cx         1 TYT      -0.112400
     17 C11         -3.4880     0.6260     1.2120 cx         1 TYT      -0.053400
     18 C12         -4.0890    -0.3580     0.2450 ca         1 TYT      -0.040300
     19 C13         -3.5360    -1.6460     0.1100 ca         1 TYT      -0.090500
     20 C14         -4.1010    -2.5730    -0.7830 ca         1 TYT      -0.110000
     21 C15         -5.2280    -2.2200    -1.5440 ca         1 TYT      -0.105000
     22 C16         -5.7900    -0.9390    -1.4080 ca         1 TYT      -0.110000
     23 C17         -5.2240    -0.0120    -0.5150 ca         1 TYT      -0.090500
     24 C18          0.7180     0.6130    -1.5270 c6         1 TYT      -0.114700
     25 H1           5.5770    -1.8610    -0.9650 hn         1 TYT       0.383500
     26 H2           4.1980    -2.5850    -1.3620 hn         1 TYT       0.383500
     27 H3           4.4840    -0.2130     0.3670 h1         1 TYT       0.047700
     28 H4           1.9210    -1.6090    -0.5240 hc         1 TYT       0.050700
     29 H5           2.0050    -0.4320     0.7630 hc         1 TYT       0.050700
     30 H6           2.7910     0.1720    -2.1380 hc         1 TYT       0.099700
     31 H7           2.4430     3.4570     0.6230 ha         1 TYT       0.183000
     32 H20          0.5650     3.8800     1.4490 ho         1 TYT       0.465000
     33 H8          -1.5140     1.2800     2.0080 h1         1 TYT       0.082700
     34 H9          -3.4480     2.3730    -0.1880 hc         1 TYT       0.070700
     35 H10         -3.4540     2.8290     1.5850 hc         1 TYT       0.070700
     36 H11         -3.8340     0.4470     2.2270 hc         1 TYT       0.072700
     37 H12         -2.6630    -1.9260     0.6960 ha         1 TYT       0.108500
     38 H13         -3.6650    -3.5650    -0.8850 ha         1 TYT       0.107000
     39 H14         -5.6660    -2.9370    -2.2340 ha         1 TYT       0.107000
     40 H15         -6.6650    -0.6650    -1.9930 ha         1 TYT       0.107000
     41 H16         -5.6700     0.9740    -0.4130 ha         1 TYT       0.108500
     42 H17          0.5770     1.2810    -2.3860 hc         1 TYT       0.059700
     43 H18          0.2850    -0.3540    -1.8180 hc         1 TYT       0.059700
@<TRIPOS>BOND
     1     1     2 1   
     2     1    25 1   
     3     1    26 1   
     4     2     3 1   
     5     2     6 1   
     6     2    27 1   
     7     3     4 1   
     8     3     5 1   
     9     6     7 1   
    10     6    28 1   
    11     6    29 1   
    12     7     8 1   
    13     7    24 1   
    14     7    30 1   
    15     8     9 2   
    16     8    10 1   
    17    10    11 2   
    18    10    31 1   
    19    11    12 1   
    20    11    13 1   
    21    12    32 1   
    22    13    14 2   
    23    13    24 1   
    24    14    15 1   
    25    15    16 1   
    26    15    17 1   
    27    15    33 1   
    28    16    17 1   
    29    16    34 1   
    30    16    35 1   
    31    17    18 1   
    32    17    36 1   
    33    18    19 ar  
    34    18    23 ar  
    35    19    20 ar  
    36    19    37 1   
    37    20    21 ar  
    38    20    38 1   
    39    21    22 ar  
    40    21    39 1   
    41    22    23 ar  
    42    22    40 1   
    43    23    41 1   
    44    24    42 1   
    45    24    43 1   
@<TRIPOS>SUBSTRUCTURE
     1 TYT         1 TEMP              0 ****  ****    0 ROOT
