@<TRIPOS>MOLECULE
TYV
   22    22     1     0     0
SMALL
bcc


@<TRIPOS>ATOM
      1 C1          69.3460    48.2110    89.1940 c6         1 TYV       0.341900
      2 C2          68.9220    48.5230    87.7610 c6         1 TYV       0.126100
      3 C3          70.1210    48.4230    86.8240 c6         1 TYV      -0.110400
      4 C4          71.2770    49.2710    87.3290 c6         1 TYV       0.125100
      5 C5          71.6060    48.8800    88.7740 c6         1 TYV       0.116100
      6 C6          72.6670    49.7640    89.4000 c3         1 TYV      -0.091100
      7 O1          69.6070    46.8440    89.2630 oh         1 TYV      -0.618800
      8 O2          68.3760    49.8240    87.7910 oh         1 TYV      -0.592800
      9 O4          72.3810    49.0610    86.4760 oh         1 TYV      -0.595800
     10 O5          70.4410    48.9920    89.5850 os         1 TYV      -0.427600
     11 H1          68.5430    48.4980    89.8840 h2         1 TYV       0.078700
     12 H2          68.1610    47.7900    87.4620 h1         1 TYV       0.053700
     13 H31         70.4370    47.3780    86.7540 hc         1 TYV       0.064200
     14 H32         69.8310    48.7300    85.8140 hc         1 TYV       0.064200
     15 H4          70.9750    50.3280    87.3200 h1         1 TYV       0.046700
     16 H5          71.9670    47.8430    88.7700 h1         1 TYV       0.054700
     17 H61         72.8420    49.4840    90.4390 hc         1 TYV       0.043367
     18 H62         73.6170    49.6600    88.8750 hc         1 TYV       0.043367
     19 H63         72.3750    50.8160    89.3720 hc         1 TYV       0.043367
     20 HO1         69.7490    46.6000    90.1840 ho         1 TYV       0.420000
     21 HO2         68.1210    50.0640    86.8940 ho         1 TYV       0.408000
     22 HO4         73.0210    49.7650    86.6200 ho         1 TYV       0.406000
@<TRIPOS>BOND
     1     1     2 1   
     2     1     7 1   
     3     1    10 1   
     4     1    11 1   
     5     2     3 1   
     6     2     8 1   
     7     2    12 1   
     8     3     4 1   
     9     3    13 1   
    10     3    14 1   
    11     4     5 1   
    12     4     9 1   
    13     4    15 1   
    14     5     6 1   
    15     5    10 1   
    16     5    16 1   
    17     6    17 1   
    18     6    18 1   
    19     6    19 1   
    20     7    20 1   
    21     8    21 1   
    22     9    22 1   
@<TRIPOS>SUBSTRUCTURE
     1 TYV         1 TEMP              0 ****  ****    0 ROOT
