@<TRIPOS>MOLECULE
TYV
   22    22     1     0     0
SMALL
No Charge or Current Charge


@<TRIPOS>ATOM
      1 C1          69.2970    48.1900    89.2160 c6         1 TYV       0.388300
      2 C2          68.8630    48.5620    87.7450 c6         1 TYV       0.149300
      3 C3          70.0810    48.4450    86.7880 c6         1 TYV      -0.110400
      4 C4          71.2880    49.2650    87.3150 c6         1 TYV       0.148300
      5 C5          71.6130    48.8510    88.7920 c6         1 TYV       0.139300
      6 C6          72.7080    49.7340    89.4430 c3         1 TYV      -0.091100
      7 O1          69.6660    46.8170    89.3450 oh         1 TYV      -0.681000
      8 O2          68.3310    49.9040    87.6600 oh         1 TYV      -0.715000
      9 O4          72.4150    49.0650    86.4440 oh         1 TYV      -0.718000
     10 O5          70.4350    48.9780    89.6310 os         1 TYV      -0.474000
     11 H1          68.4510    48.4030    89.8890 h2         1 TYV       0.078700
     12 H2          68.0950    47.8410    87.4260 h1         1 TYV       0.053700
     13 H31         70.3690    47.3880    86.6950 hc         1 TYV       0.064200
     14 H32         69.8080    48.7770    85.7770 hc         1 TYV       0.064200
     15 H4          71.0060    50.3300    87.3130 h1         1 TYV       0.046700
     16 H5          71.9610    47.8080    88.8110 h1         1 TYV       0.054700
     17 H61         72.8690    49.4500    90.4890 hc         1 TYV       0.043367
     18 H62         73.6680    49.6270    88.9250 hc         1 TYV       0.043367
     19 H63         72.4300    50.7950    89.4210 hc         1 TYV       0.043367
     20 HO1         70.0330    46.7440    90.2510 ho         1 TYV       0.459000
     21 HO2         67.9310    49.9990    86.7650 ho         1 TYV       0.507000
     22 HO4         73.0640    49.7790    86.6440 ho         1 TYV       0.505000
@<TRIPOS>BOND
     1     1     2 1   
     2     1     7 1   
     3     1    10 1   
     4     1    11 1   
     5     2     3 1   
     6     2     8 1   
     7     2    12 1   
     8     3     4 1   
     9     3    13 1   
    10     3    14 1   
    11     4     5 1   
    12     4     9 1   
    13     4    15 1   
    14     5     6 1   
    15     5    10 1   
    16     5    16 1   
    17     6    17 1   
    18     6    18 1   
    19     6    19 1   
    20     7    20 1   
    21     8    21 1   
    22     9    22 1   
@<TRIPOS>SUBSTRUCTURE
     1 TYV         1 TEMP              0 ****  ****    0 ROOT
