@<TRIPOS>MOLECULE
TYW
   26    26     1     0     0
SMALL
No Charge or Current Charge


@<TRIPOS>ATOM
      1 C           12.9940   -33.3700    10.5630 c3         1 TYW       0.402300
      2 N           11.2070   -34.0340    12.2310 n8         1 TYW      -1.030200
      3 O           12.2110   -32.9210     9.4740 oh         1 TYW      -0.674500
      4 CA          12.3030   -34.5460    11.3410 c3         1 TYW       0.130500
      5 CB          11.8140   -35.7090    10.4360 c3         1 TYW      -0.022100
      6 CG          11.2600   -36.8950    11.2260 ca         1 TYW      -0.128300
      7 CZ          10.2480   -39.0890    12.6790 ca         1 TYW       0.137100
      8 CD1         12.1280   -37.7120    11.9770 ca         1 TYW      -0.071000
      9 CD2          9.8810   -37.1870    11.2040 ca         1 TYW      -0.071000
     10 CE1         11.6210   -38.8050    12.7020 ca         1 TYW      -0.175500
     11 CE2          9.3770   -38.2810    11.9300 ca         1 TYW      -0.175500
     12 OXT         13.0110   -32.2980    11.4630 oh         1 TYW      -0.674500
     13 HN          10.4080   -33.7750    11.6370 hn         1 TYW       0.409000
     14 HNA         10.8370   -34.8290    12.7670 hn         1 TYW       0.409000
     15 HA          13.0710   -34.9620    12.0070 h1         1 TYW       0.037700
     16 HB          11.0590   -35.3340     9.7350 hc         1 TYW       0.070200
     17 HBA         12.6540   -36.0460     9.8170 hc         1 TYW       0.070200
     18 HOH          8.7950   -40.1960    13.2510 ho         1 TYW       0.464000
     19 HD1         13.1960   -37.5020    11.9990 ha         1 TYW       0.116000
     20 HD2          9.1980   -36.5670    10.6260 ha         1 TYW       0.116000
     21 HE1         12.2950   -39.4320    13.2800 ha         1 TYW       0.121000
     22 HE2          8.3110   -38.4940    11.9050 ha         1 TYW       0.121000
     23 HO          12.8010   -32.3290     8.9620 ho         1 TYW       0.471000
     24 HXT         12.2780   -32.6060    12.0600 ho         1 TYW       0.471000
     25 H1          14.0070   -33.6250    10.2280 h2         1 TYW       0.009700
     26 OH           9.7660   -40.1500    13.3840 oh         1 TYW      -0.534100
@<TRIPOS>BOND
     1     1     3 1   
     2     1     4 1   
     3     1    12 1   
     4     1    25 1   
     5     2     4 1   
     6     2    13 1   
     7     2    14 1   
     8     3    23 1   
     9     4     5 1   
    10     4    15 1   
    11     5     6 1   
    12     5    16 1   
    13     5    17 1   
    14     6     8 ar  
    15     6     9 ar  
    16     7    10 ar  
    17     7    11 ar  
    18     7    26 1   
    19     8    10 ar  
    20     8    19 1   
    21     9    11 ar  
    22     9    20 1   
    23    10    21 1   
    24    11    22 1   
    25    12    24 1   
    26    18    26 1   
@<TRIPOS>SUBSTRUCTURE
     1 TYW         1 TEMP              0 ****  ****    0 ROOT
