@<TRIPOS>MOLECULE
TYW
   26    26     1     0     0
SMALL
abcg2


@<TRIPOS>ATOM
      1 C           12.8450   -33.3400    10.7000 c3         1 TYW       0.402300
      2 N           11.3150   -34.0810    12.3810 n8         1 TYW      -1.030200
      3 O           13.6720   -33.7440     9.6630 oh         1 TYW      -0.674500
      4 CA          12.2830   -34.5760    11.4110 c3         1 TYW       0.130500
      5 CB          11.5950   -35.5520    10.4490 c3         1 TYW      -0.022100
      6 CG          11.1140   -36.7920    11.1510 ca         1 TYW      -0.128300
      7 CZ          10.2550   -39.0930    12.5240 ca         1 TYW       0.137100
      8 CD1         12.0130   -37.7920    11.5230 ca         1 TYW      -0.071000
      9 CD2          9.7760   -36.9770    11.4810 ca         1 TYW      -0.071000
     10 CE1         11.6000   -38.9280    12.1980 ca         1 TYW      -0.175500
     11 CE2          9.3420   -38.1100    12.1590 ca         1 TYW      -0.175500
     12 OXT         11.8010   -32.5490    10.2010 oh         1 TYW      -0.674500
     13 HN          10.7990   -34.8510    12.7890 hn         1 TYW       0.409000
     14 HNA         11.7920   -33.6260    13.1500 hn         1 TYW       0.409000
     15 HA          13.1280   -35.0990    11.8800 h1         1 TYW       0.037700
     16 HB          10.7550   -35.0530     9.9610 hc         1 TYW       0.070200
     17 HBA         12.3010   -35.8300     9.6640 hc         1 TYW       0.070200
     18 HOH          8.9530   -40.2210    13.3550 ho         1 TYW       0.464000
     19 HD1         13.0630   -37.6860    11.2740 ha         1 TYW       0.116000
     20 HD2          9.0470   -36.2240    11.2030 ha         1 TYW       0.116000
     21 HE1         12.3170   -39.6930    12.4710 ha         1 TYW       0.121000
     22 HE2          8.2900   -38.2220    12.4000 ha         1 TYW       0.121000
     23 HO          14.2660   -33.0240     9.4300 ho         1 TYW       0.471000
     24 HXT         11.0810   -32.6550    10.8440 ho         1 TYW       0.471000
     25 H1          13.4270   -32.7600    11.4380 h2         1 TYW       0.009700
     26 OH           9.9010   -40.2170    13.1830 oh         1 TYW      -0.534100
@<TRIPOS>BOND
     1     1     3 1   
     2     1     4 1   
     3     1    12 1   
     4     1    25 1   
     5     2     4 1   
     6     2    13 1   
     7     2    14 1   
     8     3    23 1   
     9     4     5 1   
    10     4    15 1   
    11     5     6 1   
    12     5    16 1   
    13     5    17 1   
    14     6     8 ar  
    15     6     9 ar  
    16     7    10 ar  
    17     7    11 ar  
    18     7    26 1   
    19     8    10 ar  
    20     8    19 1   
    21     9    11 ar  
    22     9    20 1   
    23    10    21 1   
    24    11    22 1   
    25    12    24 1   
    26    18    26 1   
@<TRIPOS>SUBSTRUCTURE
     1 TYW         1 TEMP              0 ****  ****    0 ROOT
