@<TRIPOS>MOLECULE
TYX
   30    30     1     0     0
SMALL
bcc


@<TRIPOS>ATOM
      1 N           -5.4310    -2.1840    19.9590 n8         1 TYX      -0.900800
      2 CA          -5.2900    -2.8940    18.7000 c3         1 TYX       0.017500
      3 C           -6.1100    -2.2100    17.5740 c          1 TYX       0.939600
      4 O           -6.3450    -2.9030    16.5660 o          1 TYX      -0.830300
      5 CB          -5.6540    -4.3620    18.8580 c3         1 TYX       0.062700
      6 SG          -7.4100    -4.6580    19.2270 ss         1 TYX      -0.302200
      7 C6          -6.9980   -10.8010    23.0200 ca         1 TYX      -0.174000
      8 C5          -8.2160   -10.3930    22.4920 ca         1 TYX      -0.104000
      9 C4          -8.3940    -9.0870    22.0700 ca         1 TYX      -0.176000
     10 C7          -6.8220    -5.7680    21.6850 c          1 TYX       0.679100
     11 C8          -7.4510    -4.5540    21.0420 c3         1 TYX      -0.098300
     12 C3          -7.3540    -8.1560    22.1650 ca         1 TYX       0.094600
     13 C1          -5.9670    -9.8790    23.1180 ca         1 TYX      -0.104000
     14 O1          -5.6820    -5.7470    22.1150 o          1 TYX      -0.593100
     15 N1          -7.6250    -6.8640    21.7070 ns         1 TYX      -0.472100
     16 C2          -6.1290    -8.5640    22.6980 ca         1 TYX      -0.176000
     17 OXT         -6.4200    -1.0160    17.7530 o          1 TYX      -0.830300
     18 HN1A        -4.6300    -2.3580    20.5510 hn         1 TYX       0.333800
     19 HN2         -5.4510    -1.1930    19.7610 hn         1 TYX       0.333800
     20 HA          -4.2450    -2.8900    18.3400 h1         1 TYX       0.003700
     21 HB1         -5.4600    -4.8920    17.9270 h1         1 TYX       0.058700
     22 HB2         -5.0480    -4.8410    19.6280 h1         1 TYX       0.058700
     23 H4          -9.3500    -8.7830    21.6610 ha         1 TYX       0.146500
     24 H81         -6.9250    -3.6540    21.3510 h1         1 TYX       0.099700
     25 H82         -8.5050    -4.4570    21.3130 h1         1 TYX       0.099700
     26 H1          -5.0110   -10.1790    23.5270 ha         1 TYX       0.121500
     27 HN1         -8.5470    -6.7430    21.3130 hn         1 TYX       0.321500
     28 H2          -5.3060    -7.8750    22.7880 ha         1 TYX       0.146500
     29 H6          -6.8560   -11.8220    23.3490 ha         1 TYX       0.122000
     30 H5          -9.0370   -11.0930    22.4060 ha         1 TYX       0.121500
@<TRIPOS>BOND
     1     1     2 1   
     2     1    18 1   
     3     1    19 1   
     4     2     3 1   
     5     2     5 1   
     6     2    20 1   
     7     3     4 1   
     8     3    17 1   
     9     5     6 1   
    10     5    21 1   
    11     5    22 1   
    12     6    11 1   
    13     7     8 ar  
    14     7    13 ar  
    15     7    29 1   
    16     8     9 ar  
    17     8    30 1   
    18     9    12 ar  
    19     9    23 1   
    20    10    11 1   
    21    10    14 2   
    22    10    15 1   
    23    11    24 1   
    24    11    25 1   
    25    12    15 1   
    26    12    16 ar  
    27    13    16 ar  
    28    13    26 1   
    29    15    27 1   
    30    16    28 1   
@<TRIPOS>SUBSTRUCTURE
     1 TYX         1 TEMP              0 ****  ****    0 ROOT
