@<TRIPOS>MOLECULE
TYX
   30    30     1     0     0
SMALL
No Charge or Current Charge


@<TRIPOS>ATOM
      1 N           -5.1880    -2.2160    19.9000 n8         1 TYX      -1.011200
      2 CA          -5.3880    -2.9980    18.6150 c3         1 TYX       0.017500
      3 C           -6.2050    -2.3080    17.4400 c          1 TYX       0.729000
      4 O           -6.1880    -2.8420    16.3370 o          1 TYX      -0.725000
      5 CB          -5.9280    -4.4350    18.8740 c3         1 TYX       0.110600
      6 SG          -7.7060    -4.4710    19.4290 ss         1 TYX      -0.398000
      7 C6          -6.9480   -10.8180    22.9120 ca         1 TYX      -0.156000
      8 C5          -8.0680   -10.4400    22.1570 ca         1 TYX      -0.086000
      9 C4          -8.2440    -9.0960    21.7870 ca         1 TYX      -0.158000
     10 C7          -6.8230    -5.6040    21.8900 c          1 TYX       0.612100
     11 C8          -7.5140    -4.3730    21.2830 c3         1 TYX      -0.050400
     12 C3          -7.3050    -8.1160    22.1640 ca         1 TYX       0.002000
     13 C1          -6.0050    -9.8510    23.2970 ca         1 TYX      -0.086000
     14 O1          -5.7250    -5.5260    22.4300 o          1 TYX      -0.593100
     15 N1          -7.5530    -6.7780    21.7530 ns         1 TYX      -0.146000
     16 C2          -6.1810    -8.5060    22.9270 ca         1 TYX      -0.158000
     17 OXT         -6.7360    -1.2210    17.6380 o          1 TYX      -0.725000
     18 HN1A        -4.4320    -2.6400    20.4490 hn         1 TYX       0.389000
     19 HN2         -4.8340    -1.2800    19.6690 hn         1 TYX       0.389000
     20 HA          -4.3740    -3.1220    18.2120 h1         1 TYX       0.003700
     21 HB1         -5.8580    -5.0070    17.9390 h1         1 TYX       0.058700
     22 HB2         -5.2980    -4.9460    19.6130 h1         1 TYX       0.058700
     23 H4          -9.1170    -8.8160    21.2010 ha         1 TYX       0.128500
     24 H81         -6.9330    -3.4850    21.5550 h1         1 TYX       0.099700
     25 H82         -8.5060    -4.2870    21.7440 h1         1 TYX       0.099700
     26 H1          -5.1370   -10.1440    23.8850 ha         1 TYX       0.103500
     27 HN1         -8.4280    -6.6590    21.2590 hn         1 TYX       0.155000
     28 H2          -5.4350    -7.7860    23.2460 ha         1 TYX       0.128500
     29 H6          -6.8100   -11.8580    23.2000 ha         1 TYX       0.104000
     30 H5          -8.8000   -11.1880    21.8580 ha         1 TYX       0.103500
@<TRIPOS>BOND
     1     1     2 1   
     2     1    18 1   
     3     1    19 1   
     4     2     3 1   
     5     2     5 1   
     6     2    20 1   
     7     3     4 1   
     8     3    17 1   
     9     5     6 1   
    10     5    21 1   
    11     5    22 1   
    12     6    11 1   
    13     7     8 ar  
    14     7    13 ar  
    15     7    29 1   
    16     8     9 ar  
    17     8    30 1   
    18     9    12 ar  
    19     9    23 1   
    20    10    11 1   
    21    10    14 2   
    22    10    15 1   
    23    11    24 1   
    24    11    25 1   
    25    12    15 1   
    26    12    16 ar  
    27    13    16 ar  
    28    13    26 1   
    29    15    27 1   
    30    16    28 1   
@<TRIPOS>SUBSTRUCTURE
     1 TYX         1 TEMP              0 ****  ****    0 ROOT
