@<TRIPOS>MOLECULE
TYY
   24    24     1     0     0
SMALL
bcc


@<TRIPOS>ATOM
      1 N           66.3000    76.6420    -2.9820 n8         1 TYY      -0.881800
      2 CA          65.7410    75.4220    -2.4440 c3         1 TYY       0.027500
      3 C           64.4130    75.7110    -1.6970 c          1 TYY       0.936600
      4 O           64.3170    76.8270    -1.1490 o          1 TYY      -0.828800
      5 CB          66.6650    74.6740    -1.4430 c3         1 TYY      -0.077200
      6 CG          67.9770    74.3010    -2.0410 cc         1 TYY      -0.098400
      7 CD1         68.0500    73.0930    -2.9060 c          1 TYY       0.559500
      8 CD2         69.0810    75.0410    -1.8780 cd         1 TYY      -0.250600
      9 CE1         69.3290    72.7640    -3.5170 cc         1 TYY      -0.270200
     10 CE2         70.3760    74.7280    -2.4830 cd         1 TYY       0.492900
     11 CZ          70.4350    73.5090    -3.3390 cd         1 TYY       0.008500
     12 OZ          67.0640    72.3990    -3.0940 o          1 TYY      -0.487100
     13 N5          71.3410    75.5150    -2.2230 n2         1 TYY      -0.748100
     14 OH          71.5670    73.1380    -3.9290 oh         1 TYY      -0.493100
     15 OXT         63.5810    74.7850    -1.6710 o          1 TYY      -0.828800
     16 H           67.2540    76.5010    -3.2920 hn         1 TYY       0.324800
     17 H2          66.3250    77.3380    -2.2470 hn         1 TYY       0.324800
     18 HA          65.5290    74.7390    -3.2720 h1         1 TYY       0.058700
     19 HB2         66.8350    75.3230    -0.5800 hc         1 TYY       0.067700
     20 HB3         66.1470    73.7820    -1.0870 hc         1 TYY       0.067700
     21 HD2         69.0700    75.9260    -1.2530 ha         1 TYY       0.157000
     22 HE1         69.3670    71.8770    -4.1380 ha         1 TYY       0.154000
     23 HN5         72.2300    75.2730    -2.6510 hn         1 TYY       0.360400
     24 HH          72.3010    73.7450    -3.7810 ho         1 TYY       0.423000
@<TRIPOS>BOND
     1     1     2 1   
     2     1    16 1   
     3     1    17 1   
     4     2     3 1   
     5     2     5 1   
     6     2    18 1   
     7     3     4 1   
     8     3    15 1   
     9     5     6 1   
    10     5    19 1   
    11     5    20 1   
    12     6     7 1   
    13     6     8 2   
    14     7     9 1   
    15     7    12 2   
    16     8    10 1   
    17     8    21 1   
    18     9    11 2   
    19     9    22 1   
    20    10    11 1   
    21    10    13 2   
    22    11    14 1   
    23    13    23 1   
    24    14    24 1   
@<TRIPOS>SUBSTRUCTURE
     1 TYY         1 TEMP              0 ****  ****    0 ROOT
