@<TRIPOS>MOLECULE
TYY
   24    24     1     0     0
SMALL
No Charge or Current Charge


@<TRIPOS>ATOM
      1 N           66.3030    76.6530    -3.0180 n8         1 TYY      -0.881800
      2 CA          65.6890    75.4190    -2.3970 c3         1 TYY       0.027500
      3 C           64.2570    75.5810    -1.7210 c          1 TYY       0.936600
      4 O           64.1370    76.3360    -0.7590 o          1 TYY      -0.828800
      5 CB          66.7010    74.7730    -1.4120 c3         1 TYY      -0.077200
      6 CG          68.0260    74.3870    -2.0480 cc         1 TYY      -0.098400
      7 CD1         68.0290    73.1330    -2.8550 c          1 TYY       0.559500
      8 CD2         69.1850    75.1300    -1.8750 cd         1 TYY      -0.250600
      9 CE1         69.3130    72.7830    -3.4760 cc         1 TYY      -0.270200
     10 CE2         70.4150    74.7190    -2.4920 cd         1 TYY       0.492900
     11 CZ          70.4730    73.5140    -3.3260 cd         1 TYY       0.008500
     12 OZ          67.0400    72.4280    -3.0140 o          1 TYY      -0.487100
     13 N5          71.4520    75.4590    -2.2690 n2         1 TYY      -0.748100
     14 OH          71.6030    73.0860    -3.9560 oh         1 TYY      -0.493100
     15 OXT         63.3000    74.9950    -2.2180 o          1 TYY      -0.828800
     16 H           67.2740    76.4500    -3.2730 hn         1 TYY       0.324800
     17 H2          66.3740    77.3840    -2.3020 hn         1 TYY       0.324800
     18 HA          65.5420    74.7020    -3.2160 h1         1 TYY       0.058700
     19 HB2         66.8750    75.4650    -0.5780 hc         1 TYY       0.067700
     20 HB3         66.2370    73.8880    -0.9600 hc         1 TYY       0.067700
     21 HD2         69.1720    76.0280    -1.2680 ha         1 TYY       0.157000
     22 HE1         69.2990    71.8810    -4.0750 ha         1 TYY       0.154000
     23 HN5         72.2990    75.0920    -2.7130 hn         1 TYY       0.360400
     24 HH          72.3000    73.7680    -3.8740 ho         1 TYY       0.423000
@<TRIPOS>BOND
     1     1     2 1   
     2     1    16 1   
     3     1    17 1   
     4     2     3 1   
     5     2     5 1   
     6     2    18 1   
     7     3     4 1   
     8     3    15 1   
     9     5     6 1   
    10     5    19 1   
    11     5    20 1   
    12     6     7 1   
    13     6     8 2   
    14     7     9 1   
    15     7    12 2   
    16     8    10 1   
    17     8    21 1   
    18     9    11 2   
    19     9    22 1   
    20    10    11 1   
    21    10    13 2   
    22    11    14 1   
    23    13    23 1   
    24    14    24 1   
@<TRIPOS>SUBSTRUCTURE
     1 TYY         1 TEMP              0 ****  ****    0 ROOT
