@<TRIPOS>MOLECULE
TYZ
   21    21     1     0     0
SMALL
bcc


@<TRIPOS>ATOM
      1 O1           0.8860    -0.4720    -2.2220 o          1 TYZ      -0.827800
      2 O2           2.8780    -1.4710    -2.2500 o          1 TYZ      -0.827800
      3 C7           1.8790    -0.9930    -1.6770 c          1 TYZ       0.925200
      4 C3           1.8710    -1.0500    -0.1580 ca         1 TYZ      -0.146600
      5 C4           0.7920    -0.5640     0.5770 ca         1 TYZ      -0.086000
      6 C5           0.7840    -0.6150     1.9580 ca         1 TYZ      -0.192000
      7 C6           1.8650    -1.1560     2.6610 ca         1 TYZ       0.022600
      8 C1           2.9530    -1.6470     1.9380 ca         1 TYZ      -0.192000
      9 C2           2.9390    -1.5880     0.5510 ca         1 TYZ      -0.086000
     10 C8           2.6380    -1.6270     4.9860 c          1 TYZ       0.667100
     11 N            1.7670    -1.1590     4.0560 ns         1 TYZ      -0.461100
     12 O4           3.6990    -2.1640     4.7170 o          1 TYZ      -0.600100
     13 C9           2.2010    -1.4020     6.4110 c3         1 TYZ      -0.183100
     14 H4          -0.0590    -0.1370     0.0610 ha         1 TYZ       0.145500
     15 H5          -0.0700    -0.2300     2.5030 ha         1 TYZ       0.120000
     16 HA           3.8060    -2.0720     2.4400 ha         1 TYZ       0.120000
     17 H2           3.7910    -1.9750     0.0090 ha         1 TYZ       0.145500
     18 HN           0.9220    -0.7420     4.4150 hn         1 TYZ       0.301500
     19 H9C1         2.7740    -0.5740     6.8310 hc         1 TYZ       0.052033
     20 H9C2         2.4220    -2.2870     7.0050 hc         1 TYZ       0.052033
     21 H9C3         1.1430    -1.1670     6.5150 hc         1 TYZ       0.052033
@<TRIPOS>BOND
     1     1     3 1   
     2     2     3 1   
     3     3     4 1   
     4     4     5 ar  
     5     4     9 ar  
     6     5     6 ar  
     7     5    14 1   
     8     6     7 ar  
     9     6    15 1   
    10     7     8 ar  
    11     7    11 1   
    12     8     9 ar  
    13     8    16 1   
    14     9    17 1   
    15    10    11 1   
    16    10    12 2   
    17    10    13 1   
    18    11    18 1   
    19    13    19 1   
    20    13    20 1   
    21    13    21 1   
@<TRIPOS>SUBSTRUCTURE
     1 TYZ         1 TEMP              0 ****  ****    0 ROOT
