@<TRIPOS>MOLECULE
TYZ
   21    21     1     0     0
SMALL
No Charge or Current Charge


@<TRIPOS>ATOM
      1 O1           0.9220    -0.4260    -2.2720 o          1 TYZ      -0.722500
      2 O2           2.7850    -1.4920    -2.3250 o          1 TYZ      -0.722500
      3 C7           1.8580    -0.9800    -1.7130 c          1 TYZ       0.714600
      4 C3           1.8690    -1.0360    -0.1940 ca         1 TYZ      -0.146600
      5 C4           0.8220    -0.4610     0.5600 ca         1 TYZ      -0.068000
      6 C5           0.8350    -0.5150     1.9650 ca         1 TYZ      -0.174000
      7 C6           1.8890    -1.1410     2.6530 ca         1 TYZ      -0.070000
      8 C1           2.9370    -1.7180     1.9070 ca         1 TYZ      -0.174000
      9 C2           2.9270    -1.6660     0.5010 ca         1 TYZ      -0.068000
     10 C8           2.6780    -1.6730     5.0490 c          1 TYZ       0.600100
     11 N            1.8300    -1.1540     4.0760 ns         1 TYZ      -0.135000
     12 O4           3.7260    -2.2680     4.8230 o          1 TYZ      -0.600100
     13 C9           2.1910    -1.4400     6.4780 c3         1 TYZ      -0.183100
     14 H4          -0.0100     0.0320     0.0600 ha         1 TYZ       0.127500
     15 H5           0.0160    -0.0630     2.5200 ha         1 TYZ       0.102000
     16 HA           3.7720    -2.2120     2.3930 ha         1 TYZ       0.102000
     17 H2           3.7490    -2.1190    -0.0470 ha         1 TYZ       0.127500
     18 HN           1.0100    -0.6950     4.4510 hn         1 TYZ       0.135000
     19 H9C1         2.0270    -0.3670     6.6290 hc         1 TYZ       0.052033
     20 H9C2         2.8700    -1.8550     7.2320 hc         1 TYZ       0.052033
     21 H9C3         1.1770    -1.8450     6.5810 hc         1 TYZ       0.052033
@<TRIPOS>BOND
     1     1     3 1   
     2     2     3 1   
     3     3     4 1   
     4     4     5 ar  
     5     4     9 ar  
     6     5     6 ar  
     7     5    14 1   
     8     6     7 ar  
     9     6    15 1   
    10     7     8 ar  
    11     7    11 1   
    12     8     9 ar  
    13     8    16 1   
    14     9    17 1   
    15    10    11 1   
    16    10    12 2   
    17    10    13 1   
    18    11    18 1   
    19    13    19 1   
    20    13    20 1   
    21    13    21 1   
@<TRIPOS>SUBSTRUCTURE
     1 TYZ         1 TEMP              0 ****  ****    0 ROOT
