@<TRIPOS>MOLECULE
TZ0
   53    56     1     0     0
SMALL
abcg2


@<TRIPOS>ATOM
      1 C0N         -4.2110    -4.8070    -0.1040 c3         1 TZ0       0.148400
      2 O01         -5.2940    -3.9000    -0.0910 os         1 TZ0      -0.336600
      3 C0E         -5.0380    -2.5840    -0.0260 ca         1 TZ0       0.176600
      4 C0O         -3.7550    -2.0420     0.0190 ca         1 TZ0      -0.213500
      5 C0C         -6.1510    -1.7500    -0.0050 ca         1 TZ0      -0.179000
      6 C0D         -5.9960    -0.3690     0.0620 ca         1 TZ0       0.176600
      7 O02         -7.1310     0.3480     0.0810 os         1 TZ0      -0.336600
      8 C0U         -7.0450     1.7560     0.1420 c3         1 TZ0       0.148400
      9 C0R         -4.7210     0.1900     0.1070 ca         1 TZ0      -0.213500
     10 C0J         -3.6120    -0.6560     0.0830 ca         1 TZ0       0.094000
     11 C0S         -2.3040    -0.0980     0.1150 cg         1 TZ0      -0.086000
     12 C0H         -1.1860     0.3550     0.1340 ch         1 TZ0      -0.119200
     13 C0G          0.1030     0.9340     0.1220 cd         1 TZ0       0.451800
     14 N09          1.1960     0.2310     0.3380 nc         1 TZ0      -0.499100
     15 C0A          0.4370     2.2920    -0.1260 ca         1 TZ0      -0.375900
     16 C0F         -0.1970     3.5150    -0.4250 ca         1 TZ0       0.461900
     17 N05         -1.5240     3.6290    -0.5420 nv         1 TZ0      -1.068900
     18 N06          0.5540     4.5990    -0.5910 nb         1 TZ0      -0.306000
     19 C0L          1.8770     4.4870    -0.4710 ca         1 TZ0       0.200900
     20 N08          2.5900     3.4120    -0.2030 nb         1 TZ0      -0.230000
     21 C0B          1.8240     2.3350    -0.0400 ca         1 TZ0       0.162500
     22 N04          2.2270     1.0730     0.2370 na         1 TZ0      -0.013100
     23 C0K          3.5790     0.6140     0.4160 c5         1 TZ0       0.085300
     24 C0I          3.9740    -0.5080    -0.5430 c5         1 TZ0       0.090000
     25 C0Q          3.8620     0.0160     1.7910 c5         1 TZ0      -0.109400
     26 C0T          5.1510    -0.7630     1.5590 c5         1 TZ0       0.112000
     27 N07          5.0710    -1.1490     0.1550 n          1 TZ0      -0.425800
     28 C0P          5.8670    -2.0330    -0.4940 c          1 TZ0       0.612300
     29 O03          5.6620    -2.3380    -1.6550 o          1 TZ0      -0.598100
     30 C0M          7.0040    -2.5980     0.2840 ce         1 TZ0      -0.297200
     31 C0V          7.7810    -3.5390    -0.2380 c2         1 TZ0      -0.236000
     32 H1          -3.6100    -4.7410     0.8060 h1         1 TZ0       0.042867
     33 H2          -4.6440    -5.8020    -0.1610 h1         1 TZ0       0.042867
     34 H3          -3.5610    -4.6600    -0.9700 h1         1 TZ0       0.042867
     35 H4          -2.8700    -2.6610     0.0030 ha         1 TZ0       0.124500
     36 H5          -7.1450    -2.1780    -0.0430 ha         1 TZ0       0.144000
     37 H6          -6.5270     2.1740    -0.7250 h1         1 TZ0       0.042867
     38 H7          -8.0660     2.1290     0.1460 h1         1 TZ0       0.042867
     39 H8          -6.5460     2.0980     1.0520 h1         1 TZ0       0.042867
     40 H9          -4.5720     1.2580     0.1650 ha         1 TZ0       0.124500
     41 H10         -2.1250     2.8270    -0.4830 hn         1 TZ0       0.505500
     42 H11         -1.9170     4.5140    -0.8060 hn         1 TZ0       0.505500
     43 H12          2.4330     5.4060    -0.6160 h5         1 TZ0       0.048100
     44 H13          4.2120     1.4880     0.2490 h1         1 TZ0       0.097700
     45 H14          3.1400    -1.1980    -0.7020 h1         1 TZ0       0.072700
     46 H15          4.2890    -0.1340    -1.5180 h1         1 TZ0       0.072700
     47 H16          3.9630     0.7690     2.5720 hc         1 TZ0       0.071700
     48 H17          3.0500    -0.6570     2.0690 hc         1 TZ0       0.071700
     49 H18          6.0280    -0.1360     1.7480 h1         1 TZ0       0.047200
     50 H19          5.2150    -1.6300     2.2180 h1         1 TZ0       0.047200
     51 H20          7.2050    -2.2300     1.2820 ha         1 TZ0       0.178000
     52 H21          8.6130    -3.9510     0.3160 ha         1 TZ0       0.176000
     53 H22          7.6070    -3.9240    -1.2340 ha         1 TZ0       0.176000
@<TRIPOS>BOND
     1     1     2 1   
     2     1    32 1   
     3     1    33 1   
     4     1    34 1   
     5     2     3 1   
     6     3     4 ar  
     7     3     5 ar  
     8     4    10 ar  
     9     4    35 1   
    10     5     6 ar  
    11     5    36 1   
    12     6     7 1   
    13     6     9 ar  
    14     7     8 1   
    15     8    37 1   
    16     8    38 1   
    17     8    39 1   
    18     9    10 ar  
    19     9    40 1   
    20    10    11 1   
    21    11    12 3   
    22    12    13 1   
    23    13    14 2   
    24    13    15 1   
    25    14    22 1   
    26    15    16 ar  
    27    15    21 ar  
    28    16    17 1   
    29    16    18 ar  
    30    17    41 1   
    31    17    42 1   
    32    18    19 ar  
    33    19    20 ar  
    34    19    43 1   
    35    20    21 ar  
    36    21    22 1   
    37    22    23 1   
    38    23    24 1   
    39    23    25 1   
    40    23    44 1   
    41    24    27 1   
    42    24    45 1   
    43    24    46 1   
    44    25    26 1   
    45    25    47 1   
    46    25    48 1   
    47    26    27 1   
    48    26    49 1   
    49    26    50 1   
    50    27    28 1   
    51    28    29 2   
    52    28    30 1   
    53    30    31 2   
    54    30    51 1   
    55    31    52 1   
    56    31    53 1   
@<TRIPOS>SUBSTRUCTURE
     1 TZ0         1 TEMP              0 ****  ****    0 ROOT
