@<TRIPOS>MOLECULE
TZ0
   53    56     1     0     0
SMALL
No Charge or Current Charge


@<TRIPOS>ATOM
      1 C0N         -4.9310    -4.1800    -2.0700 c3         1 TZ0       0.148400
      2 O01         -5.8060    -3.4200    -1.2180 os         1 TZ0      -0.336600
      3 C0E         -5.3820    -2.2950    -0.5420 ca         1 TZ0       0.176600
      4 C0O         -4.0630    -1.8050    -0.6350 ca         1 TZ0      -0.213500
      5 C0C         -6.3140    -1.6260     0.2640 ca         1 TZ0      -0.179000
      6 C0D         -5.9490    -0.4760     0.9770 ca         1 TZ0       0.176600
      7 O02         -6.9140     0.1330     1.7520 os         1 TZ0      -0.336600
      8 C0U         -6.6440     1.3170     2.5240 c3         1 TZ0       0.148400
      9 C0R         -4.6290     0.0120     0.8830 ca         1 TZ0      -0.213500
     10 C0J         -3.6900    -0.6530     0.0780 ca         1 TZ0       0.094000
     11 C0S         -2.3490    -0.1550    -0.0180 cg         1 TZ0      -0.086000
     12 C0H         -1.2110     0.2810    -0.1040 ch         1 TZ0      -0.119200
     13 C0G          0.0820     0.8500    -0.2500 cd         1 TZ0       0.451800
     14 N09          1.1490     0.1800     0.1990 nc         1 TZ0      -0.499100
     15 C0A          0.4830     2.0960    -0.8400 ca         1 TZ0      -0.375900
     16 C0F         -0.2200     3.1340    -1.4350 ca         1 TZ0       0.461900
     17 N05         -1.5640     3.1390    -1.5730 nv         1 TZ0      -1.068900
     18 N06          0.4260     4.2070    -1.9120 nb         1 TZ0      -0.306000
     19 C0L          1.7750     4.2010    -1.7710 ca         1 TZ0       0.200900
     20 N08          2.5250     3.2260    -1.2020 nb         1 TZ0      -0.230000
     21 C0B          1.8390     2.1640    -0.7350 ca         1 TZ0       0.162500
     22 N04          2.2480     0.9990    -0.1020 na         1 TZ0      -0.013100
     23 C0K          3.6170     0.5970     0.2460 c5         1 TZ0       0.085300
     24 C0I          4.0660    -0.7840    -0.3070 c5         1 TZ0       0.090000
     25 C0Q          3.8900     0.4040     1.7620 c5         1 TZ0      -0.109400
     26 C0T          5.2990    -0.2420     1.7570 c5         1 TZ0       0.112000
     27 N07          5.2390    -1.0860     0.5450 n          1 TZ0      -0.425800
     28 C0P          6.1640    -2.0980     0.2240 c          1 TZ0       0.612300
     29 O03          5.9900    -2.8070    -0.7580 o          1 TZ0      -0.598100
     30 C0M          7.3250    -2.3290     1.1450 ce         1 TZ0      -0.297200
     31 C0V          8.0640    -3.4660     1.1650 c2         1 TZ0      -0.236000
     32 H1          -4.0780    -4.5730    -1.5030 h1         1 TZ0       0.042867
     33 H2          -5.4690    -5.0300    -2.5070 h1         1 TZ0       0.042867
     34 H3          -4.5520    -3.5600    -2.8930 h1         1 TZ0       0.042867
     35 H4          -3.3210    -2.3040    -1.2520 ha         1 TZ0       0.124500
     36 H5          -7.3300    -2.0030     0.3360 ha         1 TZ0       0.144000
     37 H6          -6.3300     2.1440     1.8740 h1         1 TZ0       0.042867
     38 H7          -7.5460     1.6330     3.0630 h1         1 TZ0       0.042867
     39 H8          -5.8550     1.1290     3.2640 h1         1 TZ0       0.042867
     40 H9          -4.3200     0.9010     1.4260 ha         1 TZ0       0.124500
     41 H10         -2.0680     2.2670    -1.4450 hn         1 TZ0       0.505500
     42 H11         -1.9790     3.8190    -2.2050 hn         1 TZ0       0.505500
     43 H12          2.3100     5.0680    -2.1550 h5         1 TZ0       0.048100
     44 H13          4.3040     1.3620    -0.1390 h1         1 TZ0       0.097700
     45 H14          3.2890    -1.5490    -0.1760 h1         1 TZ0       0.072700
     46 H15          4.3240    -0.7290    -1.3730 h1         1 TZ0       0.072700
     47 H16          3.8630     1.3460     2.3210 hc         1 TZ0       0.071700
     48 H17          3.1530    -0.2680     2.2180 hc         1 TZ0       0.071700
     49 H18          6.0900     0.5140     1.6630 h1         1 TZ0       0.047200
     50 H19          5.4760    -0.8280     2.6690 h1         1 TZ0       0.047200
     51 H20          7.5320    -1.5490     1.8740 ha         1 TZ0       0.178000
     52 H21          8.8830    -3.6060     1.8730 ha         1 TZ0       0.176000
     53 H22          7.8760    -4.2910     0.4750 ha         1 TZ0       0.176000
@<TRIPOS>BOND
     1     1     2 1   
     2     1    32 1   
     3     1    33 1   
     4     1    34 1   
     5     2     3 1   
     6     3     4 ar  
     7     3     5 ar  
     8     4    10 ar  
     9     4    35 1   
    10     5     6 ar  
    11     5    36 1   
    12     6     7 1   
    13     6     9 ar  
    14     7     8 1   
    15     8    37 1   
    16     8    38 1   
    17     8    39 1   
    18     9    10 ar  
    19     9    40 1   
    20    10    11 1   
    21    11    12 3   
    22    12    13 1   
    23    13    14 2   
    24    13    15 1   
    25    14    22 1   
    26    15    16 ar  
    27    15    21 ar  
    28    16    17 1   
    29    16    18 ar  
    30    17    41 1   
    31    17    42 1   
    32    18    19 ar  
    33    19    20 ar  
    34    19    43 1   
    35    20    21 ar  
    36    21    22 1   
    37    22    23 1   
    38    23    24 1   
    39    23    25 1   
    40    23    44 1   
    41    24    27 1   
    42    24    45 1   
    43    24    46 1   
    44    25    26 1   
    45    25    47 1   
    46    25    48 1   
    47    26    27 1   
    48    26    49 1   
    49    26    50 1   
    50    27    28 1   
    51    28    29 2   
    52    28    30 1   
    53    30    31 2   
    54    30    51 1   
    55    31    52 1   
    56    31    53 1   
@<TRIPOS>SUBSTRUCTURE
     1 TZ0         1 TEMP              0 ****  ****    0 ROOT
