@<TRIPOS>MOLECULE
TZ1
   34    37     1     0     0
SMALL
abcg2


@<TRIPOS>ATOM
      1 C1           7.1760    15.0330    22.9460 ca         1 TZ1      -0.075000
      2 N1           8.6420    13.4960    21.8790 nb         1 TZ1      -0.655000
      3 O1           7.7370     5.7960    22.3920 o          1 TZ1      -0.574100
      4 S1           5.1090    10.7150    20.9210 ss         1 TZ1      -0.052300
      5 CL1          5.6730    16.9010    24.1910 cl         1 TZ1      -0.201000
      6 C2           7.3730    13.8140    22.2580 ca         1 TZ1       0.278000
      7 N2           6.5930     7.6840    18.9690 nc         1 TZ1      -0.406000
      8 S2           6.5340     8.0640    21.5090 ss         1 TZ1      -0.119800
      9 C3           6.2510    12.9730    21.9910 ca         1 TZ1      -0.066000
     10 N3           5.9940     8.8930    19.1410 nc         1 TZ1      -0.236000
     11 S3           9.1510     3.1870    22.5880 ss         1 TZ1       0.337000
     12 C4           4.9730    13.3860    22.4330 ca         1 TZ1      -0.083000
     13 N4           7.5720     5.9210    20.1390 ns         1 TZ1      -0.457400
     14 C5           4.8000    14.5720    23.0980 ca         1 TZ1      -0.097000
     15 C6           5.9180    15.3910    23.3450 ca         1 TZ1       0.131000
     16 C7           8.8170    12.3660    21.2320 ca         1 TZ1       0.365900
     17 C8           7.7850    11.4670    20.9040 ca         1 TZ1      -0.163000
     18 C9           6.4990    11.7600    21.2860 ca         1 TZ1      -0.067000
     19 C10          5.8920     9.2380    20.3900 cd         1 TZ1       0.392700
     20 C11          6.9390     7.1330    20.1080 cd         1 TZ1       0.516300
     21 C12          7.9620     5.2870    21.2970 c          1 TZ1       0.651700
     22 C13          8.6490     4.0080    21.1480 cc         1 TZ1      -0.317600
     23 C14          8.9970     3.2940    20.0230 cd         1 TZ1      -0.074000
     24 C15          9.6670     2.0880    20.3280 cd         1 TZ1      -0.142000
     25 C16          9.8180     1.9040    21.6790 cc         1 TZ1      -0.238000
     26 H1           8.0340    15.6620    23.1400 ha         1 TZ1       0.149000
     27 H4           4.1090    12.7600    22.2520 ha         1 TZ1       0.126000
     28 HN4          7.7390     5.4970    19.2360 hn         1 TZ1       0.351500
     29 H5           3.8200    14.8800    23.4340 ha         1 TZ1       0.134000
     30 H7           9.8320    12.1260    20.9320 h4         1 TZ1       0.024100
     31 H8           8.0290    10.5710    20.3530 ha         1 TZ1       0.132000
     32 H14          8.7870     3.6100    19.0100 ha         1 TZ1       0.135000
     33 H15         10.0210     1.3890    19.5850 ha         1 TZ1       0.144000
     34 H16         10.2900     1.0760    22.1850 h4         1 TZ1       0.158000
@<TRIPOS>BOND
     1     1     6 ar  
     2     1    15 ar  
     3     1    26 1   
     4     2     6 ar  
     5     2    16 ar  
     6     3    21 2   
     7     4    18 1   
     8     4    19 1   
     9     5    15 1   
    10     6     9 ar  
    11     7    10 1   
    12     7    20 2   
    13     8    19 1   
    14     8    20 1   
    15     9    12 ar  
    16     9    18 ar  
    17    10    19 2   
    18    11    22 1   
    19    11    25 1   
    20    12    14 ar  
    21    12    27 1   
    22    13    20 1   
    23    13    21 1   
    24    13    28 1   
    25    14    15 ar  
    26    14    29 1   
    27    16    17 ar  
    28    16    30 1   
    29    17    18 ar  
    30    17    31 1   
    31    21    22 1   
    32    22    23 2   
    33    23    24 1   
    34    23    32 1   
    35    24    25 2   
    36    24    33 1   
    37    25    34 1   
@<TRIPOS>SUBSTRUCTURE
     1 TZ1         1 TEMP              0 ****  ****    0 ROOT
