@<TRIPOS>MOLECULE
TZ1
   34    37     1     0     0
SMALL
No Charge or Current Charge


@<TRIPOS>ATOM
      1 C1           7.2510    13.1720    23.5990 ca         1 TZ1      -0.075000
      2 N1           8.7680    13.3860    21.7810 nb         1 TZ1      -0.655000
      3 O1           9.1040     7.3780    21.7070 o          1 TZ1      -0.574100
      4 S1           5.7160    11.5690    18.8220 ss         1 TZ1      -0.052300
      5 Cl1          5.6560    13.0140    25.8250 cl         1 TZ1      -0.201000
      6 C2           7.5500    13.0050    22.2360 ca         1 TZ1       0.278000
      7 N2           5.7520     7.6660    19.1420 nc         1 TZ1      -0.406000
      8 S2           7.3950     9.3690    20.2600 ss         1 TZ1      -0.119800
      9 C3           6.5630    12.4420    21.3780 ca         1 TZ1      -0.066000
     10 N3           5.3170     8.9160    18.7250 nc         1 TZ1      -0.236000
     11 S3          10.0930     4.6260    22.6560 ss         1 TZ1       0.337000
     12 C4           5.3050    12.0670    21.9050 ca         1 TZ1      -0.083000
     13 N4           7.3670     6.6020    20.4420 ns         1 TZ1      -0.457400
     14 C5           5.0300    12.2430    23.2700 ca         1 TZ1      -0.097000
     15 C6           6.0030    12.7940    24.1140 ca         1 TZ1       0.131000
     16 C7           9.0490    13.2250    20.4690 ca         1 TZ1       0.365900
     17 C8           8.1370    12.6760    19.5570 ca         1 TZ1      -0.163000
     18 C9           6.8730    12.2660    20.0080 ca         1 TZ1      -0.067000
     19 C10          6.0680     9.8740    19.2450 cd         1 TZ1       0.392700
     20 C11          6.8110     7.7480    19.9380 cd         1 TZ1       0.516300
     21 C12          8.4450     6.4470    21.2730 c          1 TZ1       0.651700
     22 C13          8.7460     5.0420    21.6020 cc         1 TZ1      -0.317600
     23 C14          8.0750     3.9150    21.1730 cd         1 TZ1      -0.074000
     24 C15          8.6330     2.7130    21.6830 cd         1 TZ1      -0.142000
     25 C16          9.7210     2.9120    22.4960 cc         1 TZ1      -0.238000
     26 H1           7.9960    13.5990    24.2620 ha         1 TZ1       0.149000
     27 H4           4.5310    11.6400    21.2730 ha         1 TZ1       0.126000
     28 HN4          6.9290     5.7370    20.1720 hn         1 TZ1       0.351500
     29 H5           4.0630    11.9540    23.6740 ha         1 TZ1       0.134000
     30 H7          10.0370    13.5460    20.1410 h4         1 TZ1       0.024100
     31 H8           8.4190    12.5710    18.5130 ha         1 TZ1       0.132000
     32 H14          7.2100     3.9160    20.5150 ha         1 TZ1       0.135000
     33 H15          8.2360     1.7280    21.4520 ha         1 TZ1       0.144000
     34 H16         10.3340     2.1860    23.0140 h4         1 TZ1       0.158000
@<TRIPOS>BOND
     1     1     6 ar  
     2     1    15 ar  
     3     1    26 1   
     4     2     6 ar  
     5     2    16 ar  
     6     3    21 2   
     7     4    18 1   
     8     4    19 1   
     9     5    15 1   
    10     6     9 ar  
    11     7    10 1   
    12     7    20 2   
    13     8    19 1   
    14     8    20 1   
    15     9    12 ar  
    16     9    18 ar  
    17    10    19 2   
    18    11    22 1   
    19    11    25 1   
    20    12    14 ar  
    21    12    27 1   
    22    13    20 1   
    23    13    21 1   
    24    13    28 1   
    25    14    15 ar  
    26    14    29 1   
    27    16    17 ar  
    28    16    30 1   
    29    17    18 ar  
    30    17    31 1   
    31    21    22 1   
    32    22    23 2   
    33    23    24 1   
    34    23    32 1   
    35    24    25 2   
    36    24    33 1   
    37    25    34 1   
@<TRIPOS>SUBSTRUCTURE
     1 TZ1         1 TEMP              0 ****  ****    0 ROOT
