@<TRIPOS>MOLECULE
TZ2
   37    39     1     0     0
SMALL
abcg2


@<TRIPOS>ATOM
      1 N20         -4.8590     1.6860     1.3270 n1         1 TZ2      -0.072000
      2 N19         -4.6540     0.8640     0.5880 n1         1 TZ2       0.228000
      3 N18         -4.5350    -0.0690    -0.1850 n2         1 TZ2      -0.437200
      4 C28         -3.2830    -0.1280    -0.9450 c3         1 TZ2       0.148800
      5 C29         -2.1350    -0.6720    -0.1010 c3         1 TZ2       0.178800
      6 N7          -0.9310    -0.7990    -0.9100 nu         1 TZ2      -0.948200
      7 C30          0.3080    -0.4250    -0.4050 ca         1 TZ2       0.312000
      8 C39          0.5980     0.9050    -0.1400 ca         1 TZ2      -0.148300
      9 C40         -0.4010     1.9920    -0.4600 c6         1 TZ2      -0.014100
     10 C41         -0.0020     3.3840     0.0180 c6         1 TZ2      -0.077400
     11 C42          1.4710     3.6530    -0.2270 c6         1 TZ2      -0.073400
     12 C38          2.2960     2.6560     0.5700 c6         1 TZ2      -0.133700
     13 C37          1.9090     1.2260     0.3000 ca         1 TZ2       0.395300
     14 N8           2.8600     0.3390     0.4730 nb         1 TZ2      -0.688000
     15 C33          2.5920    -0.9610     0.2330 ca         1 TZ2       0.291000
     16 C31          1.3220    -1.4090    -0.2000 ca         1 TZ2      -0.117000
     17 C34          3.6280    -1.9040     0.4310 ca         1 TZ2      -0.084000
     18 C35          3.4080    -3.2380     0.2250 ca         1 TZ2      -0.101000
     19 C36          2.1370    -3.6890    -0.1820 ca         1 TZ2      -0.110000
     20 C32          1.1190    -2.7960    -0.3890 ca         1 TZ2      -0.098000
     21 H3          -3.4740    -0.7980    -1.7810 h1         1 TZ2       0.068700
     22 H4          -3.0230     0.8480    -1.3640 h1         1 TZ2       0.068700
     23 H5          -1.9380    -0.0240     0.7530 h1         1 TZ2       0.047700
     24 H6          -2.4220    -1.6420     0.3160 h1         1 TZ2       0.047700
     25 H7          -0.9080    -1.6870    -1.3870 hn         1 TZ2       0.453000
     26 H8          -0.5420     2.0000    -1.5470 hc         1 TZ2       0.045200
     27 H9          -1.3810     1.7640    -0.0440 hc         1 TZ2       0.045200
     28 H10         -0.6280     4.1250    -0.4830 hc         1 TZ2       0.041700
     29 H11         -0.2060     3.4770     1.0890 hc         1 TZ2       0.041700
     30 H12          1.6980     3.5620    -1.2940 hc         1 TZ2       0.047200
     31 H13          1.7330     4.6710     0.0660 hc         1 TZ2       0.047200
     32 H14          3.3630     2.7670     0.3700 hc         1 TZ2       0.063200
     33 H15          2.1630     2.8550     1.6400 hc         1 TZ2       0.063200
     34 H16          4.5950    -1.5390     0.7540 ha         1 TZ2       0.131000
     35 H17          4.2050    -3.9520     0.3820 ha         1 TZ2       0.117000
     36 H18          1.9610    -4.7470    -0.3250 ha         1 TZ2       0.114000
     37 H19          0.1510    -3.1780    -0.6850 ha         1 TZ2       0.104000
@<TRIPOS>BOND
     1     1     2 3   
     2     2     3 1   
     3     3     4 1   
     4     4     5 1   
     5     4    21 1   
     6     4    22 1   
     7     5     6 1   
     8     5    23 1   
     9     5    24 1   
    10     6     7 1   
    11     6    25 1   
    12     7     8 ar  
    13     7    16 ar  
    14     8     9 1   
    15     8    13 ar  
    16     9    10 1   
    17     9    26 1   
    18     9    27 1   
    19    10    11 1   
    20    10    28 1   
    21    10    29 1   
    22    11    12 1   
    23    11    30 1   
    24    11    31 1   
    25    12    13 1   
    26    12    32 1   
    27    12    33 1   
    28    13    14 ar  
    29    14    15 ar  
    30    15    16 ar  
    31    15    17 ar  
    32    16    20 ar  
    33    17    18 ar  
    34    17    34 1   
    35    18    19 ar  
    36    18    35 1   
    37    19    20 ar  
    38    19    36 1   
    39    20    37 1   
@<TRIPOS>SUBSTRUCTURE
     1 TZ2         1 TEMP              0 ****  ****    0 ROOT
