@<TRIPOS>MOLECULE
TZ2
   37    39     1     0     0
SMALL
No Charge or Current Charge


@<TRIPOS>ATOM
      1 N20         -5.4170     1.2590     0.9640 n1         1 TZ2      -0.072000
      2 N19         -5.0840     0.2850     0.4790 n1         1 TZ2       0.228000
      3 N18         -4.6180    -0.7890     0.0640 n2         1 TZ2      -0.437200
      4 C28         -3.4570    -0.6950    -0.8380 c3         1 TZ2       0.148800
      5 C29         -2.1300    -0.6700    -0.0380 c3         1 TZ2       0.178800
      6 N7          -0.9490    -0.5580    -0.9230 nu         1 TZ2      -0.948200
      7 C30          0.3360    -0.2620    -0.4460 ca         1 TZ2       0.312000
      8 C39          0.7160     1.0750    -0.2080 ca         1 TZ2      -0.148300
      9 C40         -0.2350     2.2550    -0.5040 c6         1 TZ2      -0.014100
     10 C41          0.2280     3.6010     0.0970 c6         1 TZ2      -0.077400
     11 C42          1.7290     3.8310    -0.1610 c6         1 TZ2      -0.073400
     12 C38          2.5590     2.7220     0.5210 c6         1 TZ2      -0.133700
     13 C37          2.0310     1.3120     0.2440 ca         1 TZ2       0.395300
     14 N8           2.9250     0.3290     0.4720 nb         1 TZ2      -0.688000
     15 C33          2.5660    -0.9500     0.2470 ca         1 TZ2       0.291000
     16 C31          1.2740    -1.2970    -0.2200 ca         1 TZ2      -0.117000
     17 C34          3.5060    -1.9720     0.4820 ca         1 TZ2      -0.084000
     18 C35          3.1830    -3.3210     0.2620 ca         1 TZ2      -0.101000
     19 C36          1.9050    -3.6640    -0.1970 ca         1 TZ2      -0.110000
     20 C32          0.9530    -2.6610    -0.4370 ca         1 TZ2      -0.098000
     21 H3          -3.4420    -1.5560    -1.5190 h1         1 TZ2       0.068700
     22 H4          -3.5120     0.2090    -1.4600 h1         1 TZ2       0.068700
     23 H5          -2.1580     0.1780     0.6590 h1         1 TZ2       0.047700
     24 H6          -2.0540    -1.5850     0.5670 h1         1 TZ2       0.047700
     25 H7          -0.9260    -1.2670    -1.6570 hn         1 TZ2       0.453000
     26 H8          -0.3270     2.3630    -1.5940 hc         1 TZ2       0.045200
     27 H9          -1.2470     2.0460    -0.1360 hc         1 TZ2       0.045200
     28 H10         -0.3610     4.4230    -0.3330 hc         1 TZ2       0.041700
     29 H11          0.0340     3.6100     1.1790 hc         1 TZ2       0.041700
     30 H12          1.9240     3.8340    -1.2430 hc         1 TZ2       0.047200
     31 H13          2.0340     4.8160     0.2180 hc         1 TZ2       0.047200
     32 H14          3.6060     2.8040     0.1980 hc         1 TZ2       0.063200
     33 H15          2.5610     2.8860     1.6070 hc         1 TZ2       0.063200
     34 H16          4.4990    -1.7110     0.8390 ha         1 TZ2       0.131000
     35 H17          3.9230    -4.0960     0.4490 ha         1 TZ2       0.117000
     36 H18          1.6500    -4.7080    -0.3660 ha         1 TZ2       0.114000
     37 H19         -0.0320    -2.9600    -0.7850 ha         1 TZ2       0.104000
@<TRIPOS>BOND
     1     1     2 3   
     2     2     3 1   
     3     3     4 1   
     4     4     5 1   
     5     4    21 1   
     6     4    22 1   
     7     5     6 1   
     8     5    23 1   
     9     5    24 1   
    10     6     7 1   
    11     6    25 1   
    12     7     8 ar  
    13     7    16 ar  
    14     8     9 1   
    15     8    13 ar  
    16     9    10 1   
    17     9    26 1   
    18     9    27 1   
    19    10    11 1   
    20    10    28 1   
    21    10    29 1   
    22    11    12 1   
    23    11    30 1   
    24    11    31 1   
    25    12    13 1   
    26    12    32 1   
    27    12    33 1   
    28    13    14 ar  
    29    14    15 ar  
    30    15    16 ar  
    31    15    17 ar  
    32    16    20 ar  
    33    17    18 ar  
    34    17    34 1   
    35    18    19 ar  
    36    18    35 1   
    37    19    20 ar  
    38    19    36 1   
    39    20    37 1   
@<TRIPOS>SUBSTRUCTURE
     1 TZ2         1 TEMP              0 ****  ****    0 ROOT
