@<TRIPOS>MOLECULE
TZ3
   73    78     1     0     0
SMALL
No Charge or Current Charge


@<TRIPOS>ATOM
      1 N1          17.6950   -16.3830    25.9660 n          1 TZ3      -0.375800
      2 C4          13.9440   -14.5170    25.1160 ca         1 TZ3      -0.205000
      3 C5          15.1900   -15.1550    25.2730 ca         1 TZ3      -0.023300
      4 C6          15.2480   -16.5640    25.3980 ca         1 TZ3      -0.124300
      5 C7          16.4650   -14.3130    25.3250 c6         1 TZ3      -0.012100
      6 C8          17.7540   -15.1420    25.1750 cx         1 TZ3       0.050400
      7 C10         18.5980   -16.7610    26.9970 c          1 TZ3       0.620700
      8 C13         18.3500   -15.1990    23.7790 cx         1 TZ3      -0.119400
      9 C15         17.7270   -19.3080    24.4670 ca         1 TZ3      -0.081500
     10 C17         17.6490   -19.7100    22.0600 ca         1 TZ3      -0.079000
     11 C20         17.4230   -19.9490    19.1690 c3         1 TZ3       0.061600
     12 C21         17.7580   -20.7330    17.8800 c5         1 TZ3      -0.089700
     13 C22         19.1020   -14.4490    27.9670 ca         1 TZ3      -0.076500
     14 C24         21.3220   -13.9050    28.8040 ca         1 TZ3      -0.096000
     15 C26         20.8680   -16.1180    27.8970 ca         1 TZ3      -0.076500
     16 C28         16.4210   -22.2020    16.4200 c5         1 TZ3       0.141800
     17 C1          14.0550   -17.3130    25.3600 ca         1 TZ3      -0.064000
     18 C2          12.8170   -16.6680    25.2000 ca         1 TZ3      -0.140000
     19 C3          12.7630   -15.2730    25.0790 ca         1 TZ3       0.139100
     20 C9          16.5920   -17.3010    25.5580 c6         1 TZ3       0.210300
     21 O1          11.5600   -14.6530    24.9260 oh         1 TZ3      -0.536100
     22 C11         19.5370   -15.7440    27.6080 ca         1 TZ3      -0.132600
     23 C12         19.0430   -14.4040    24.8460 cx         1 TZ3      -0.119400
     24 C14         16.9560   -18.1390    24.3170 ca         1 TZ3      -0.102300
     25 C16         18.0700   -20.0840    23.3470 ca         1 TZ3      -0.117500
     26 O2          18.5980   -17.9050    27.4370 o          1 TZ3      -0.602100
     27 C18         16.8730   -18.5440    21.9040 ca         1 TZ3      -0.117500
     28 C19         16.5290   -17.7670    23.0240 ca         1 TZ3      -0.081500
     29 C23         19.9920   -13.5320    28.5530 ca         1 TZ3      -0.117000
     30 S1          18.1300   -20.7530    20.6780 ss         1 TZ3      -0.186000
     31 C25         21.7580   -15.2000    28.4820 ca         1 TZ3      -0.117000
     32 C27         17.1420   -22.1730    17.7990 c5         1 TZ3      -0.108400
     33 N2          17.1640   -21.1900    15.6290 n3         1 TZ3      -0.691600
     34 C29         17.2340   -20.0550    16.5800 c5         1 TZ3       0.149800
     35 C30         18.4670   -21.6200    15.0490 c3         1 TZ3       0.155800
     36 C31         18.3630   -22.7090    13.9550 c3         1 TZ3      -0.069400
     37 C32         17.5060   -22.2980    12.7390 c3         1 TZ3      -0.084100
     38 H1          13.9030   -13.4350    25.0260 ha         1 TZ3       0.112000
     39 H2          16.4260   -13.5370    24.5480 hc         1 TZ3       0.058700
     40 H3          16.4890   -13.7740    26.2800 hc         1 TZ3       0.058700
     41 H4          18.8300   -16.1220    23.4640 hc         1 TZ3       0.082700
     42 H5          17.8520   -14.6550    22.9810 hc         1 TZ3       0.082700
     43 H6          18.0640   -19.6180    25.4530 ha         1 TZ3       0.126000
     44 H7          17.8330   -18.9340    19.0890 h1         1 TZ3       0.064700
     45 H8          16.3330   -19.8790    19.2780 h1         1 TZ3       0.064700
     46 H9          18.8520   -20.7970    17.8420 hc         1 TZ3       0.062700
     47 H10         18.0690   -14.1550    27.8130 ha         1 TZ3       0.121500
     48 H11         22.0110   -13.1950    29.2590 ha         1 TZ3       0.115000
     49 H12         21.2160   -17.1190    27.6530 ha         1 TZ3       0.121500
     50 H13         15.3690   -21.9020    16.5340 h1         1 TZ3       0.055700
     51 H14         16.4240   -23.2030    15.9670 h1         1 TZ3       0.055700
     52 H15         14.0880   -18.3970    25.4480 ha         1 TZ3       0.123000
     53 H16         11.9000   -17.2510    25.1700 ha         1 TZ3       0.133000
     54 H17         16.4250   -18.0150    26.3770 h1         1 TZ3       0.098700
     55 H18         11.7170   -13.6870    24.8600 ho         1 TZ3       0.462000
     56 H19         19.9940   -14.7970    25.1940 hc         1 TZ3       0.082700
     57 H20         19.0040   -13.3200    24.7770 hc         1 TZ3       0.082700
     58 H21         18.6680   -20.9830    23.4810 ha         1 TZ3       0.118500
     59 H22         16.5290   -18.2210    20.9270 ha         1 TZ3       0.118500
     60 H23         15.9350   -16.8680    22.8770 ha         1 TZ3       0.126000
     61 H24         19.6480   -12.5360    28.8200 ha         1 TZ3       0.116000
     62 H25         22.7840   -15.4950    28.6870 ha         1 TZ3       0.116000
     63 H26         17.9260   -22.9360    17.8530 hc         1 TZ3       0.055200
     64 H27         16.4380   -22.3830    18.6130 hc         1 TZ3       0.055200
     65 H29         17.8950   -19.2490    16.2340 h1         1 TZ3       0.055200
     66 H30         16.2360   -19.6200    16.7390 h1         1 TZ3       0.055200
     67 H31         19.1350   -21.9940    15.8360 h1         1 TZ3       0.031700
     68 H32         18.9640   -20.7480    14.6030 h1         1 TZ3       0.031700
     69 H33         17.9650   -23.6350    14.3850 hc         1 TZ3       0.036700
     70 H34         19.3760   -22.9430    13.6050 hc         1 TZ3       0.036700
     71 H35         17.5130   -23.0910    11.9820 hc         1 TZ3       0.034367
     72 H36         16.4660   -22.1200    13.0360 hc         1 TZ3       0.034367
     73 H37         17.8980   -21.3830    12.2810 hc         1 TZ3       0.034367
@<TRIPOS>BOND
     1     1     6 1   
     2     1     7 1   
     3     1    20 1   
     4     2     3 ar  
     5     2    19 ar  
     6     2    38 1   
     7     3     4 ar  
     8     3     5 1   
     9     4    17 ar  
    10     4    20 1   
    11     5     6 1   
    12     5    39 1   
    13     5    40 1   
    14     6     8 1   
    15     6    23 1   
    16     7    22 1   
    17     7    26 2   
    18     8    23 1   
    19     8    41 1   
    20     8    42 1   
    21     9    24 ar  
    22     9    25 ar  
    23     9    43 1   
    24    10    25 ar  
    25    10    27 ar  
    26    10    30 1   
    27    11    12 1   
    28    11    30 1   
    29    11    44 1   
    30    11    45 1   
    31    12    32 1   
    32    12    34 1   
    33    12    46 1   
    34    13    22 ar  
    35    13    29 ar  
    36    13    47 1   
    37    14    29 ar  
    38    14    31 ar  
    39    14    48 1   
    40    15    22 ar  
    41    15    31 ar  
    42    15    49 1   
    43    16    32 1   
    44    16    33 1   
    45    16    50 1   
    46    16    51 1   
    47    17    18 ar  
    48    17    52 1   
    49    18    19 ar  
    50    18    53 1   
    51    19    21 1   
    52    20    24 1   
    53    20    54 1   
    54    21    55 1   
    55    23    56 1   
    56    23    57 1   
    57    24    28 ar  
    58    25    58 1   
    59    27    28 ar  
    60    27    59 1   
    61    28    60 1   
    62    29    61 1   
    63    31    62 1   
    64    32    63 1   
    65    32    64 1   
    66    33    34 1   
    67    33    35 1   
    68    34    65 1   
    69    34    66 1   
    70    35    36 1   
    71    35    67 1   
    72    35    68 1   
    73    36    37 1   
    74    36    69 1   
    75    36    70 1   
    76    37    71 1   
    77    37    72 1   
    78    37    73 1   
@<TRIPOS>SUBSTRUCTURE
     1 TZ3         1 TEMP              0 ****  ****    0 ROOT
