@<TRIPOS>MOLECULE
TZ3
   73    78     1     0     0
SMALL
abcg2


@<TRIPOS>ATOM
      1 N1          17.7100   -16.4420    25.9050 n          1 TZ3      -0.375800
      2 C4          14.1700   -14.4290    24.9270 ca         1 TZ3      -0.205000
      3 C5          15.3690   -15.1190    25.1200 ca         1 TZ3      -0.023300
      4 C6          15.3490   -16.5060    25.2640 ca         1 TZ3      -0.124300
      5 C7          16.6600   -14.3430    25.2040 c6         1 TZ3      -0.012100
      6 C8          17.8690   -15.2440    25.1100 cx         1 TZ3       0.050400
      7 C10         18.3670   -16.7600    27.0490 c          1 TZ3       0.620700
      8 C13         18.5360   -15.3830    23.7580 cx         1 TZ3      -0.119400
      9 C15         18.0630   -19.0490    24.3360 ca         1 TZ3      -0.081500
     10 C17         17.9140   -19.5830    21.9820 ca         1 TZ3      -0.079000
     11 C20         17.5460   -20.0280    19.2180 c3         1 TZ3       0.061600
     12 C21         17.9750   -20.7830    17.9680 c5         1 TZ3      -0.089700
     13 C22         18.7530   -14.5150    28.1280 ca         1 TZ3      -0.076500
     14 C24         20.9180   -13.9340    29.0130 ca         1 TZ3      -0.096000
     15 C26         20.5890   -16.0640    27.9350 ca         1 TZ3      -0.076500
     16 C28         16.7270   -22.4740    16.7140 c5         1 TZ3       0.141800
     17 C1          14.1220   -17.1730    25.2250 ca         1 TZ3      -0.064000
     18 C2          12.9320   -16.4930    25.0320 ca         1 TZ3      -0.140000
     19 C3          12.9600   -15.1070    24.8740 ca         1 TZ3       0.139100
     20 C9          16.6140   -17.3180    25.4470 c6         1 TZ3       0.210300
     21 O1          11.7690   -14.4670    24.6730 oh         1 TZ3      -0.536100
     22 C11         19.2550   -15.7380    27.6880 ca         1 TZ3      -0.132600
     23 C12         19.2160   -14.6390    24.8710 cx         1 TZ3      -0.119400
     24 C14         17.0250   -18.1200    24.2190 ca         1 TZ3      -0.102300
     25 C16         18.5050   -19.7690    23.2400 ca         1 TZ3      -0.117500
     26 O2          18.2440   -17.8620    27.5930 o          1 TZ3      -0.602100
     27 C18         16.8720   -18.6650    21.8610 ca         1 TZ3      -0.117500
     28 C19         16.4390   -17.9460    22.9730 ca         1 TZ3      -0.081500
     29 C23         19.5800   -13.6190    28.7950 ca         1 TZ3      -0.117000
     30 S1          18.5540   -20.5460    20.6430 ss         1 TZ3      -0.186000
     31 C25         21.4210   -15.1580    28.5810 ca         1 TZ3      -0.117000
     32 C27         17.6230   -22.2910    17.9630 c5         1 TZ3      -0.108400
     33 N2          17.0450   -21.3650    15.8010 n3         1 TZ3      -0.691600
     34 C29         17.2340   -20.2380    16.7160 c5         1 TZ3       0.149800
     35 C30         18.2320   -21.6300    14.9760 c3         1 TZ3       0.155800
     36 C31         17.9460   -22.5620    13.8000 c3         1 TZ3      -0.069400
     37 C32         16.9530   -21.9890    12.7910 c3         1 TZ3      -0.084100
     38 H1          14.1840   -13.3500    24.8110 ha         1 TZ3       0.112000
     39 H2          16.6980   -13.5940    24.4120 hc         1 TZ3       0.058700
     40 H3          16.6810   -13.7930    26.1510 hc         1 TZ3       0.058700
     41 H4          18.9400   -16.3490    23.5000 hc         1 TZ3       0.082700
     42 H5          18.1000   -14.8310    22.9360 hc         1 TZ3       0.082700
     43 H6          18.5360   -19.2000    25.2990 ha         1 TZ3       0.126000
     44 H7          17.6750   -18.9540    19.0760 h1         1 TZ3       0.064700
     45 H8          16.4950   -20.2290    19.4350 h1         1 TZ3       0.064700
     46 H9          19.0500   -20.6540    17.8300 hc         1 TZ3       0.062700
     47 H10         17.7130   -14.2680    27.9630 ha         1 TZ3       0.121500
     48 H11         21.5640   -13.2300    29.5220 ha         1 TZ3       0.115000
     49 H12         20.9740   -17.0210    27.6070 ha         1 TZ3       0.121500
     50 H13         15.6750   -22.3940    16.9990 h1         1 TZ3       0.055700
     51 H14         16.8630   -23.4370    16.2240 h1         1 TZ3       0.055700
     52 H15         14.1030   -18.2510    25.3400 ha         1 TZ3       0.123000
     53 H16         11.9860   -17.0170    25.0010 ha         1 TZ3       0.133000
     54 H17         16.4520   -18.0250    26.2580 h1         1 TZ3       0.098700
     55 H18         11.9190   -13.5180    24.5720 ho         1 TZ3       0.462000
     56 H19         20.0780   -15.1070    25.3190 hc         1 TZ3       0.082700
     57 H20         19.2570   -13.5580    24.8410 hc         1 TZ3       0.082700
     58 H21         19.3130   -20.4820    23.3550 ha         1 TZ3       0.118500
     59 H22         16.3910   -18.4920    20.9110 ha         1 TZ3       0.118500
     60 H23         15.6350   -17.2340    22.8490 ha         1 TZ3       0.126000
     61 H24         19.1800   -12.6750    29.1420 ha         1 TZ3       0.116000
     62 H25         22.4600   -15.4100    28.7530 ha         1 TZ3       0.116000
     63 H26         18.5240   -22.8990    17.8920 hc         1 TZ3       0.055200
     64 H27         17.1010   -22.5900    18.8730 hc         1 TZ3       0.055200
     65 H29         17.7680   -19.4230    16.2280 h1         1 TZ3       0.055200
     66 H30         16.2500   -19.8650    17.0180 h1         1 TZ3       0.055200
     67 H31         19.0610   -22.0450    15.5690 h1         1 TZ3       0.031700
     68 H32         18.5750   -20.6690    14.5840 h1         1 TZ3       0.031700
     69 H33         17.5830   -23.5250    14.1710 hc         1 TZ3       0.036700
     70 H34         18.8980   -22.7700    13.3030 hc         1 TZ3       0.036700
     71 H35         16.7930   -22.6800    11.9600 hc         1 TZ3       0.034367
     72 H36         15.9880   -21.7920    13.2590 hc         1 TZ3       0.034367
     73 H37         17.3210   -21.0460    12.3770 hc         1 TZ3       0.034367
@<TRIPOS>BOND
     1     1     6 1   
     2     1     7 1   
     3     1    20 1   
     4     2     3 ar  
     5     2    19 ar  
     6     2    38 1   
     7     3     4 ar  
     8     3     5 1   
     9     4    17 ar  
    10     4    20 1   
    11     5     6 1   
    12     5    39 1   
    13     5    40 1   
    14     6     8 1   
    15     6    23 1   
    16     7    22 1   
    17     7    26 2   
    18     8    23 1   
    19     8    41 1   
    20     8    42 1   
    21     9    24 ar  
    22     9    25 ar  
    23     9    43 1   
    24    10    25 ar  
    25    10    27 ar  
    26    10    30 1   
    27    11    12 1   
    28    11    30 1   
    29    11    44 1   
    30    11    45 1   
    31    12    32 1   
    32    12    34 1   
    33    12    46 1   
    34    13    22 ar  
    35    13    29 ar  
    36    13    47 1   
    37    14    29 ar  
    38    14    31 ar  
    39    14    48 1   
    40    15    22 ar  
    41    15    31 ar  
    42    15    49 1   
    43    16    32 1   
    44    16    33 1   
    45    16    50 1   
    46    16    51 1   
    47    17    18 ar  
    48    17    52 1   
    49    18    19 ar  
    50    18    53 1   
    51    19    21 1   
    52    20    24 1   
    53    20    54 1   
    54    21    55 1   
    55    23    56 1   
    56    23    57 1   
    57    24    28 ar  
    58    25    58 1   
    59    27    28 ar  
    60    27    59 1   
    61    28    60 1   
    62    29    61 1   
    63    31    62 1   
    64    32    63 1   
    65    32    64 1   
    66    33    34 1   
    67    33    35 1   
    68    34    65 1   
    69    34    66 1   
    70    35    36 1   
    71    35    67 1   
    72    35    68 1   
    73    36    37 1   
    74    36    69 1   
    75    36    70 1   
    76    37    71 1   
    77    37    72 1   
    78    37    73 1   
@<TRIPOS>SUBSTRUCTURE
     1 TZ3         1 TEMP              0 ****  ****    0 ROOT
