@<TRIPOS>MOLECULE
TZ4
   95   102     1     0     0
SMALL
No Charge or Current Charge


@<TRIPOS>ATOM
      1 N3          38.7340    28.5910     9.2940 nv         1 TZ4      -1.071000
      2 C19         38.6740    27.5300     8.4260 ca         1 TZ4       0.312000
      3 C18         39.7050    27.3040     7.5080 ca         1 TZ4      -0.088000
      4 C17         39.6350    26.2160     6.6240 ca         1 TZ4      -0.086000
      5 C16         38.5250    25.3360     6.6440 ca         1 TZ4       0.024000
      6 C14         37.4890    25.5610     7.5650 ca         1 TZ4      -0.074000
      7 C15         37.5760    26.6630     8.4530 ca         1 TZ4      -0.154000
      8 C7          36.3280    24.6540     7.6050 cc         1 TZ4       0.118000
      9 C8          35.3420    24.8620     8.6710 ca         1 TZ4      -0.132000
     10 C9          35.5220    24.2480     9.9260 ca         1 TZ4      -0.076500
     11 C10         34.5900    24.4580    10.9570 ca         1 TZ4      -0.101500
     12 C11         33.4790    25.2910    10.7410 ca         1 TZ4      -0.078000
     13 C12         33.3000    25.9120     9.4930 ca         1 TZ4      -0.101500
     14 C13         34.2300    25.7010     8.4610 ca         1 TZ4      -0.076500
     15 C4          38.4020    24.1790     5.7590 cc         1 TZ4      -0.090800
     16 C3          39.4280    23.8130     4.8090 cc         1 TZ4      -0.089200
     17 C2          39.2970    22.7050     3.9980 cd         1 TZ4      -0.301600
     18 C1          38.1250    21.9100     4.1120 cd         1 TZ4       0.376900
     19 N1          37.9990    20.8110     3.3250 nv         1 TZ4      -0.590700
     20 C6          37.2150    23.3550     5.8270 cc         1 TZ4      -0.008000
     21 C5          37.0780    22.2220     5.0220 cd         1 TZ4      -0.385600
     22 N2          36.1060    23.6000     6.6890 na         1 TZ4       0.095000
     23 C20         34.8150    22.8500     6.6730 c3         1 TZ4       0.028600
     24 C21         34.8200    21.5890     7.5680 c3         1 TZ4      -0.096400
     25 C22         33.4980    20.7930     7.4880 c3         1 TZ4      -0.074400
     26 C23         33.4470    19.5520     8.4160 c3         1 TZ4      -0.073400
     27 C24         33.5100    19.8440     9.9390 c3         1 TZ4      -0.075400
     28 C25         32.3130    20.6620    10.4820 c3         1 TZ4      -0.092700
     29 C26         32.3810    20.9370    11.9600 cc         1 TZ4       0.210300
     30 N4          32.5040    19.9330    12.8780 nc         1 TZ4      -0.350000
     31 N5          32.5000    20.4650    14.0750 nd         1 TZ4      -0.198800
     32 N6          32.3550    21.8200    13.9170 na         1 TZ4       0.111800
     33 C27         32.3050    22.1420    12.5810 cd         1 TZ4      -0.217000
     34 C28         32.2410    22.7290    15.0690 c3         1 TZ4       0.044600
     35 C29         30.8630    22.6760    15.7780 c3         1 TZ4       0.180800
     36 N7          29.7900    23.3870    15.0330 nu         1 TZ4      -0.933200
     37 C30         29.4950    23.2320    13.6660 ca         1 TZ4       0.302000
     38 C31         29.6670    24.3260    12.7830 ca         1 TZ4      -0.121000
     39 C32         30.1170    25.5930    13.2370 ca         1 TZ4      -0.109000
     40 C33         29.3910    24.1390    11.4060 ca         1 TZ4       0.291000
     41 C34         29.5570    25.2210    10.5210 ca         1 TZ4      -0.081000
     42 C35         29.9850    26.4770    10.9790 ca         1 TZ4      -0.111000
     43 C36         30.2690    26.6600    12.3380 ca         1 TZ4      -0.123000
     44 N8          28.9770    22.9560    10.9140 nb         1 TZ4      -0.695000
     45 C37         28.8060    21.9200    11.7580 ca         1 TZ4       0.408300
     46 C38         28.3070    20.6410    11.0800 c6         1 TZ4      -0.132700
     47 C39         29.0290    22.0030    13.1480 ca         1 TZ4      -0.133300
     48 C40         28.7670    20.7810    14.0520 c6         1 TZ4      -0.026100
     49 C41         27.9130    19.6810    13.3830 c6         1 TZ4      -0.073400
     50 C42         28.4360    19.3830    11.9660 c6         1 TZ4      -0.077400
     51 HN31        39.4530    29.3040     9.1800 hn         1 TZ4       0.475000
     52 HN32        37.9210    28.8350     9.8580 hn         1 TZ4       0.475000
     53 H18         40.5630    27.9690     7.4780 ha         1 TZ4       0.138000
     54 H17         40.4580    26.0850     5.9310 ha         1 TZ4       0.136000
     55 H15         36.7890    26.8590     9.1740 ha         1 TZ4       0.137000
     56 H9          36.3850    23.6090    10.1020 ha         1 TZ4       0.130000
     57 H10         34.7340    23.9820    11.9240 ha         1 TZ4       0.136500
     58 H11         32.7630    25.4610    11.5420 ha         1 TZ4       0.129000
     59 H12         32.4440    26.5620     9.3270 ha         1 TZ4       0.136500
     60 H13         34.0900    26.1920     7.5000 ha         1 TZ4       0.130000
     61 H3          40.3330    24.4040     4.7210 ha         1 TZ4       0.203000
     62 H2          40.0780    22.4400     3.2910 ha         1 TZ4       0.209000
     63 HN11        38.7280    20.5670     2.6670 hn         1 TZ4       0.326000
     64 HN12        37.1730    20.2310     3.3860 hn         1 TZ4       0.326000
     65 H5          36.2330    21.5490     5.0480 ha         1 TZ4       0.203000
     66 H201        34.5500    22.5910     5.6420 h1         1 TZ4       0.089200
     67 H202        34.0090    23.5120     7.0070 h1         1 TZ4       0.089200
     68 H211        35.0010    21.8990     8.6020 hc         1 TZ4       0.059200
     69 H212        35.6530    20.9350     7.2850 hc         1 TZ4       0.059200
     70 H221        33.3570    20.4540     6.4540 hc         1 TZ4       0.046700
     71 H222        32.6530    21.4560     7.7080 hc         1 TZ4       0.046700
     72 H231        34.2760    18.8830     8.1530 hc         1 TZ4       0.052700
     73 H232        32.5260    18.9940     8.2050 hc         1 TZ4       0.052700
     74 H241        34.4460    20.3590    10.1860 hc         1 TZ4       0.046700
     75 H242        33.5450    18.8830    10.4650 hc         1 TZ4       0.046700
     76 H251        31.3820    20.1290    10.2570 hc         1 TZ4       0.057200
     77 H252        32.2560    21.6210     9.9550 hc         1 TZ4       0.057200
     78 H27         32.1880    23.1440    12.1970 h4         1 TZ4       0.162000
     79 H281        32.4480    23.7540    14.7400 h1         1 TZ4       0.067700
     80 H282        33.0170    22.4490    15.7910 h1         1 TZ4       0.067700
     81 H291        30.9740    23.1360    16.7710 h1         1 TZ4       0.081200
     82 H292        30.5940    21.6260    15.9550 h1         1 TZ4       0.081200
     83 HN7         29.6160    24.3360    15.3640 hn         1 TZ4       0.447000
     84 H32         30.3530    25.7690    14.2830 ha         1 TZ4       0.097000
     85 H34         29.3450    25.0810     9.4640 ha         1 TZ4       0.133000
     86 H35         30.1000    27.3030    10.2810 ha         1 TZ4       0.115000
     87 H36         30.6090    27.6290    12.6970 ha         1 TZ4       0.108000
     88 H381        28.8470    20.4790    10.1370 hc         1 TZ4       0.065200
     89 H382        27.2530    20.7830    10.8070 hc         1 TZ4       0.065200
     90 H401        28.2780    21.0940    14.9850 hc         1 TZ4       0.056700
     91 H402        29.7270    20.3370    14.3390 hc         1 TZ4       0.056700
     92 H411        26.8630    20.0020    13.3330 hc         1 TZ4       0.048700
     93 H412        27.9340    18.7690    13.9950 hc         1 TZ4       0.048700
     94 H421        29.4880    19.0670    12.0170 hc         1 TZ4       0.053700
     95 H422        27.8770    18.5490    11.5190 hc         1 TZ4       0.053700
@<TRIPOS>BOND
     1     1     2 1   
     2     1    51 1   
     3     1    52 1   
     4     2     3 ar  
     5     2     7 ar  
     6     3     4 ar  
     7     3    53 1   
     8     4     5 ar  
     9     4    54 1   
    10     5     6 ar  
    11     5    15 2   
    12     6     7 ar  
    13     6     8 2   
    14     7    55 1   
    15     8     9 1   
    16     8    22 1   
    17     9    10 ar  
    18     9    14 ar  
    19    10    11 ar  
    20    10    56 1   
    21    11    12 ar  
    22    11    57 1   
    23    12    13 ar  
    24    12    58 1   
    25    13    14 ar  
    26    13    59 1   
    27    14    60 1   
    28    15    16 1   
    29    15    20 1   
    30    16    17 2   
    31    16    61 1   
    32    17    18 1   
    33    17    62 1   
    34    18    19 2   
    35    18    21 1   
    36    19    63 1   
    37    19    64 1   
    38    20    21 2   
    39    20    22 1   
    40    21    65 1   
    41    22    23 1   
    42    23    24 1   
    43    23    66 1   
    44    23    67 1   
    45    24    25 1   
    46    24    68 1   
    47    24    69 1   
    48    25    26 1   
    49    25    70 1   
    50    25    71 1   
    51    26    27 1   
    52    26    72 1   
    53    26    73 1   
    54    27    28 1   
    55    27    74 1   
    56    27    75 1   
    57    28    29 1   
    58    28    76 1   
    59    28    77 1   
    60    29    30 1   
    61    29    33 2   
    62    30    31 2   
    63    31    32 1   
    64    32    33 1   
    65    32    34 1   
    66    33    78 1   
    67    34    35 1   
    68    34    79 1   
    69    34    80 1   
    70    35    36 1   
    71    35    81 1   
    72    35    82 1   
    73    36    37 1   
    74    36    83 1   
    75    37    38 ar  
    76    37    47 ar  
    77    38    39 ar  
    78    38    40 ar  
    79    39    43 ar  
    80    39    84 1   
    81    40    41 ar  
    82    40    44 ar  
    83    41    42 ar  
    84    41    85 1   
    85    42    43 ar  
    86    42    86 1   
    87    43    87 1   
    88    44    45 ar  
    89    45    46 1   
    90    45    47 ar  
    91    46    50 1   
    92    46    88 1   
    93    46    89 1   
    94    47    48 1   
    95    48    49 1   
    96    48    90 1   
    97    48    91 1   
    98    49    50 1   
    99    49    92 1   
   100    49    93 1   
   101    50    94 1   
   102    50    95 1   
@<TRIPOS>SUBSTRUCTURE
     1 TZ4         1 TEMP              0 ****  ****    0 ROOT
