@<TRIPOS>MOLECULE
TZ4
   95   102     1     0     0
SMALL
abcg2


@<TRIPOS>ATOM
      1 N3          39.6200    27.6810    10.2540 nv         1 TZ4      -1.071000
      2 C19         39.2810    26.9010     9.1700 ca         1 TZ4       0.312000
      3 C18         40.2260    26.6900     8.1310 ca         1 TZ4      -0.088000
      4 C17         39.9550    25.8740     7.0660 ca         1 TZ4      -0.086000
      5 C16         38.7180    25.2010     6.9550 ca         1 TZ4       0.024000
      6 C14         37.7660    25.4120     7.9870 ca         1 TZ4      -0.074000
      7 C15         38.0590    26.2610     9.0780 ca         1 TZ4      -0.154000
      8 C7          36.5100    24.7610     7.9000 cc         1 TZ4       0.118000
      9 C8          35.4810    24.9960     8.9480 ca         1 TZ4      -0.132000
     10 C9          35.4330    24.1780    10.0750 ca         1 TZ4      -0.076500
     11 C10         34.5180    24.4440    11.0860 ca         1 TZ4      -0.101500
     12 C11         33.6540    25.5280    10.9790 ca         1 TZ4      -0.078000
     13 C12         33.7010    26.3450     9.8540 ca         1 TZ4      -0.101500
     14 C13         34.6140    26.0830     8.8400 ca         1 TZ4      -0.076500
     15 C4          38.3840    24.3310     5.8710 cc         1 TZ4      -0.090800
     16 C3          39.2690    24.0570     4.8030 cc         1 TZ4      -0.089200
     17 C2          38.9330    23.2160     3.7810 cd         1 TZ4      -0.301600
     18 C1          37.6690    22.5760     3.7610 cd         1 TZ4       0.376900
     19 N1          37.3260    21.7700     2.7080 nv         1 TZ4      -0.590700
     20 C6          37.1200    23.6910     5.8440 cc         1 TZ4      -0.008000
     21 C5          36.7810    22.8200     4.8020 cd         1 TZ4      -0.385600
     22 N2          36.2170    23.9510     6.8840 na         1 TZ4       0.095000
     23 C20         34.8980    23.2720     6.8800 c3         1 TZ4       0.028600
     24 C21         34.9770    21.8500     7.4230 c3         1 TZ4      -0.096400
     25 C22         33.6100    21.1720     7.3620 c3         1 TZ4      -0.074400
     26 C23         33.5540    19.8750     8.1770 c3         1 TZ4      -0.073400
     27 C24         33.5410    20.1050     9.6920 c3         1 TZ4      -0.075400
     28 C25         32.2000    20.6400    10.2110 c3         1 TZ4      -0.092700
     29 C26         32.2530    21.0580    11.6410 cc         1 TZ4       0.210300
     30 N4          32.3040    20.1770    12.6800 nc         1 TZ4      -0.350000
     31 N5          32.3640    20.8380    13.8090 nd         1 TZ4      -0.198800
     32 N6          32.3650    22.1450    13.5090 na         1 TZ4       0.111800
     33 C27         32.2900    22.3250    12.1740 cd         1 TZ4      -0.217000
     34 C28         32.3390    23.1510    14.5650 c3         1 TZ4       0.044600
     35 C29         30.9860    23.2340    15.2820 c3         1 TZ4       0.180800
     36 N7          29.8840    23.7680    14.4820 nu         1 TZ4      -0.933200
     37 C30         29.4150    23.1490    13.3250 ca         1 TZ4       0.302000
     38 C31         29.3960    23.8830    12.0940 ca         1 TZ4      -0.121000
     39 C32         29.8850    25.2050    11.9550 ca         1 TZ4      -0.109000
     40 C33         28.9280    23.2100    10.9320 ca         1 TZ4       0.291000
     41 C34         28.9330    23.8900     9.6890 ca         1 TZ4      -0.081000
     42 C35         29.3960    25.1770     9.5910 ca         1 TZ4      -0.111000
     43 C36         29.8820    25.8400    10.7370 ca         1 TZ4      -0.123000
     44 N8          28.5120    21.9190    10.9560 nb         1 TZ4      -0.695000
     45 C37         28.5210    21.2700    12.1050 ca         1 TZ4       0.408300
     46 C38         28.0170    19.8460    12.0390 c6         1 TZ4      -0.132700
     47 C39         28.9400    21.8420    13.3350 ca         1 TZ4      -0.133300
     48 C40         28.8380    21.0580    14.6210 c6         1 TZ4      -0.026100
     49 C41         27.9190    19.8430    14.5250 c6         1 TZ4      -0.073400
     50 C42         28.2820    19.0230    13.2940 c6         1 TZ4      -0.077400
     51 HN31        40.3540    28.3580    10.1100 hn         1 TZ4       0.475000
     52 HN32        38.8600    28.0270    10.8190 hn         1 TZ4       0.475000
     53 H18         41.1850    27.1920     8.1900 ha         1 TZ4       0.138000
     54 H17         40.7100    25.7530     6.3040 ha         1 TZ4       0.136000
     55 H15         37.3220    26.4110     9.8530 ha         1 TZ4       0.137000
     56 H9          36.1180    23.3450    10.1670 ha         1 TZ4       0.130000
     57 H10         34.4830    23.8040    11.9580 ha         1 TZ4       0.136500
     58 H11         32.9460    25.7360    11.7700 ha         1 TZ4       0.129000
     59 H12         33.0340    27.1920     9.7680 ha         1 TZ4       0.136500
     60 H13         34.6630    26.7240     7.9680 ha         1 TZ4       0.130000
     61 H3          40.2420    24.5240     4.7880 ha         1 TZ4       0.203000
     62 H2          39.6320    23.0300     2.9750 ha         1 TZ4       0.209000
     63 HN11        38.0710    21.4110     2.1310 hn         1 TZ4       0.326000
     64 HN12        36.5490    21.1400     2.8290 hn         1 TZ4       0.326000
     65 H5          35.8310    22.3130     4.7800 ha         1 TZ4       0.203000
     66 H201        34.5120    23.3010     5.8650 h1         1 TZ4       0.089200
     67 H202        34.2280    23.8660     7.4920 h1         1 TZ4       0.089200
     68 H211        35.3370    21.8930     8.4530 hc         1 TZ4       0.059200
     69 H212        35.7090    21.2680     6.8610 hc         1 TZ4       0.059200
     70 H221        33.3590    20.9620     6.3190 hc         1 TZ4       0.046700
     71 H222        32.8480    21.8700     7.7230 hc         1 TZ4       0.046700
     72 H231        34.4130    19.2510     7.9140 hc         1 TZ4       0.052700
     73 H232        32.6640    19.3070     7.8920 hc         1 TZ4       0.052700
     74 H241        34.3290    20.8130     9.9680 hc         1 TZ4       0.046700
     75 H242        33.7740    19.1700    10.2070 hc         1 TZ4       0.046700
     76 H251        31.4240    19.8800    10.0820 hc         1 TZ4       0.057200
     77 H252        31.8900    21.5040     9.6210 hc         1 TZ4       0.057200
     78 H27         32.2670    23.2980    11.7220 h4         1 TZ4       0.162000
     79 H281        32.5930    24.1050    14.1070 h1         1 TZ4       0.067700
     80 H282        33.1120    22.8950    15.2890 h1         1 TZ4       0.067700
     81 H291        31.1100    23.9070    16.1310 h1         1 TZ4       0.081200
     82 H292        30.7350    22.2560    15.6840 h1         1 TZ4       0.081200
     83 HN7         29.9850    24.7630    14.3710 hn         1 TZ4       0.447000
     84 H32         30.2960    25.7340    12.8050 ha         1 TZ4       0.097000
     85 H34         28.5720    23.3550     8.8200 ha         1 TZ4       0.133000
     86 H35         29.4010    25.6830     8.6340 ha         1 TZ4       0.115000
     87 H36         30.2670    26.8480    10.6540 ha         1 TZ4       0.108000
     88 H381        28.4530    19.3780    11.1540 hc         1 TZ4       0.065200
     89 H382        26.9360    19.8920    11.8580 hc         1 TZ4       0.065200
     90 H401        28.5050    21.7330    15.4150 hc         1 TZ4       0.056700
     91 H402        29.8300    20.7060    14.9160 hc         1 TZ4       0.056700
     92 H411        26.8740    20.1640    14.4560 hc         1 TZ4       0.048700
     93 H412        28.0120    19.2490    15.4370 hc         1 TZ4       0.048700
     94 H421        29.3410    18.7490    13.3450 hc         1 TZ4       0.053700
     95 H422        27.7110    18.0930    13.2540 hc         1 TZ4       0.053700
@<TRIPOS>BOND
     1     1     2 1   
     2     1    51 1   
     3     1    52 1   
     4     2     3 ar  
     5     2     7 ar  
     6     3     4 ar  
     7     3    53 1   
     8     4     5 ar  
     9     4    54 1   
    10     5     6 ar  
    11     5    15 2   
    12     6     7 ar  
    13     6     8 2   
    14     7    55 1   
    15     8     9 1   
    16     8    22 1   
    17     9    10 ar  
    18     9    14 ar  
    19    10    11 ar  
    20    10    56 1   
    21    11    12 ar  
    22    11    57 1   
    23    12    13 ar  
    24    12    58 1   
    25    13    14 ar  
    26    13    59 1   
    27    14    60 1   
    28    15    16 1   
    29    15    20 1   
    30    16    17 2   
    31    16    61 1   
    32    17    18 1   
    33    17    62 1   
    34    18    19 2   
    35    18    21 1   
    36    19    63 1   
    37    19    64 1   
    38    20    21 2   
    39    20    22 1   
    40    21    65 1   
    41    22    23 1   
    42    23    24 1   
    43    23    66 1   
    44    23    67 1   
    45    24    25 1   
    46    24    68 1   
    47    24    69 1   
    48    25    26 1   
    49    25    70 1   
    50    25    71 1   
    51    26    27 1   
    52    26    72 1   
    53    26    73 1   
    54    27    28 1   
    55    27    74 1   
    56    27    75 1   
    57    28    29 1   
    58    28    76 1   
    59    28    77 1   
    60    29    30 1   
    61    29    33 2   
    62    30    31 2   
    63    31    32 1   
    64    32    33 1   
    65    32    34 1   
    66    33    78 1   
    67    34    35 1   
    68    34    79 1   
    69    34    80 1   
    70    35    36 1   
    71    35    81 1   
    72    35    82 1   
    73    36    37 1   
    74    36    83 1   
    75    37    38 ar  
    76    37    47 ar  
    77    38    39 ar  
    78    38    40 ar  
    79    39    43 ar  
    80    39    84 1   
    81    40    41 ar  
    82    40    44 ar  
    83    41    42 ar  
    84    41    85 1   
    85    42    43 ar  
    86    42    86 1   
    87    43    87 1   
    88    44    45 ar  
    89    45    46 1   
    90    45    47 ar  
    91    46    50 1   
    92    46    88 1   
    93    46    89 1   
    94    47    48 1   
    95    48    49 1   
    96    48    90 1   
    97    48    91 1   
    98    49    50 1   
    99    49    92 1   
   100    49    93 1   
   101    50    94 1   
   102    50    95 1   
@<TRIPOS>SUBSTRUCTURE
     1 TZ4         1 TEMP              0 ****  ****    0 ROOT
