@<TRIPOS>MOLECULE
TZ5
   95   102     1     0     0
SMALL
abcg2


@<TRIPOS>ATOM
      1 N2          35.8260    22.4800    13.2160 nv         1 TZ5      -0.583700
      2 C8          36.5860    23.2340    12.3630 cc         1 TZ5       0.380900
      3 C7          38.0000    23.1790    12.4280 cc         1 TZ5      -0.302600
      4 C6          38.7630    23.8760    11.5330 cd         1 TZ5      -0.088200
      5 C5          38.1890    24.6670    10.5110 cd         1 TZ5      -0.093800
      6 C19         35.9960    24.0230    11.3830 cc         1 TZ5      -0.396600
      7 C18         36.7760    24.7310    10.4630 cd         1 TZ5      -0.008000
      8 N3          36.1700    25.5200     9.4730 na         1 TZ5       0.089000
      9 C11         36.8800    26.1830     8.5560 cc         1 TZ5       0.122000
     10 C12         36.1690    26.9750     7.5210 ca         1 TZ5      -0.136000
     11 C13         35.9610    28.3420     7.7080 ca         1 TZ5      -0.079500
     12 C14         35.3290    29.0870     6.7200 ca         1 TZ5      -0.101500
     13 C15         34.9150    28.4760     5.5400 ca         1 TZ5      -0.070000
     14 C16         35.1330    27.1150     5.3500 ca         1 TZ5      -0.101500
     15 C17         35.7620    26.3640     6.3360 ca         1 TZ5      -0.079500
     16 C10         38.2980    26.1430     8.5530 ca         1 TZ5      -0.075000
     17 C9          39.0300    26.8500     7.5730 ca         1 TZ5      -0.155000
     18 C4          38.9660    25.3840     9.5500 ca         1 TZ5       0.025000
     19 C3          40.3780    25.3800     9.5250 ca         1 TZ5      -0.087000
     20 C2          41.0740    26.0700     8.5700 ca         1 TZ5      -0.088000
     21 C1          40.4120    26.8230     7.5640 ca         1 TZ5       0.312000
     22 N1          41.1520    27.4520     6.5880 nv         1 TZ5      -1.073000
     23 C20         34.6870    25.5940     9.4600 c3         1 TZ5       0.033600
     24 C21         34.0500    24.3800     8.7830 c3         1 TZ5      -0.095400
     25 C22         32.5760    24.2040     9.1630 c3         1 TZ5      -0.073400
     26 C23         32.3920    23.7990    10.6240 c3         1 TZ5      -0.087400
     27 C24         30.9660    23.4170    11.0090 c3         1 TZ5      -0.069400
     28 C25         30.8620    23.0270    12.4870 c3         1 TZ5      -0.008100
     29 C26         31.6410    21.7980    12.8210 cc         1 TZ5      -0.171300
     30 N4          32.1590    21.5110    14.0410 na         1 TZ5       0.110800
     31 N5          32.8400    20.3450    14.0120 nc         1 TZ5      -0.212800
     32 N6          32.7610    19.8730    12.7990 nd         1 TZ5      -0.347000
     33 C27         32.0310    20.7260    12.0430 cd         1 TZ5       0.181900
     34 C28         32.1550    22.2750    15.2860 c3         1 TZ5       0.081600
     35 C29         30.7890    22.7160    15.8000 c3         1 TZ5       0.157800
     36 N7          29.8320    21.6220    16.0420 nu         1 TZ5      -0.903200
     37 C30         28.8510    21.4390    15.0130 ca         1 TZ5       0.228000
     38 C31         27.9110    22.4660    14.7080 ca         1 TZ5      -0.111000
     39 C32         27.7790    23.6610    15.4570 ca         1 TZ5      -0.115000
     40 C33         27.0570    22.2650    13.5880 ca         1 TZ5       0.268000
     41 C34         26.1240    23.2700    13.2360 ca         1 TZ5      -0.076000
     42 C35         26.0270    24.4220    13.9760 ca         1 TZ5      -0.107000
     43 C36         26.8570    24.6130    15.1020 ca         1 TZ5      -0.099000
     44 N8          27.1110    21.1350    12.8360 nb         1 TZ5      -0.673000
     45 C37         27.9330    20.1680    13.1850 ca         1 TZ5       0.376300
     46 C38         27.8930    18.9270    12.3230 c6         1 TZ5      -0.132700
     47 C39         28.8180    20.2570    14.3020 ca         1 TZ5      -0.070300
     48 C40         29.7000    19.0940    14.6880 c6         1 TZ5      -0.027100
     49 C41         29.3210    17.7810    14.0100 c6         1 TZ5      -0.075400
     50 C42         29.0870    18.0000    12.5210 c6         1 TZ5      -0.076400
     51 HN21        36.2620    22.1350    14.0570 hn         1 TZ5       0.326500
     52 HN22        34.8490    22.7110    13.3130 hn         1 TZ5       0.326500
     53 H7          38.4720    22.5760    13.1930 ha         1 TZ5       0.209000
     54 H6          39.8380    23.8110    11.6120 ha         1 TZ5       0.203000
     55 H19         34.9220    24.0530    11.3490 ha         1 TZ5       0.204000
     56 H13         36.2890    28.8140     8.6240 ha         1 TZ5       0.127500
     57 H14         35.1640    30.1460     6.8710 ha         1 TZ5       0.137000
     58 H15         34.4240    29.0580     4.7720 ha         1 TZ5       0.137000
     59 H16         34.8190    26.6370     4.4310 ha         1 TZ5       0.137000
     60 H17         35.9440    25.3080     6.1860 ha         1 TZ5       0.127500
     61 H9          38.5050    27.4190     6.8190 ha         1 TZ5       0.138000
     62 H3          40.9320    24.8240    10.2670 ha         1 TZ5       0.135000
     63 H2          42.1570    26.0440     8.5720 ha         1 TZ5       0.137000
     64 HN11        40.6880    28.1780     6.0630 hn         1 TZ5       0.475500
     65 HN12        42.1110    27.6690     6.8140 hn         1 TZ5       0.475500
     66 H201        34.4050    26.5060     8.9480 h1         1 TZ5       0.086700
     67 H202        34.3740    25.7020    10.4930 h1         1 TZ5       0.086700
     68 H211        34.5960    23.4760     9.0580 hc         1 TZ5       0.063200
     69 H212        34.1520    24.4900     7.7020 hc         1 TZ5       0.063200
     70 H221        32.1510    23.4280     8.5210 hc         1 TZ5       0.058700
     71 H222        32.0190    25.1220     8.9500 hc         1 TZ5       0.058700
     72 H231        32.7120    24.6110    11.2850 hc         1 TZ5       0.035200
     73 H232        33.0530    22.9530    10.8320 hc         1 TZ5       0.035200
     74 H241        30.6170    22.5940    10.3790 hc         1 TZ5       0.057200
     75 H242        30.2920    24.2580    10.8270 hc         1 TZ5       0.057200
     76 H251        29.8150    22.8790    12.7590 hc         1 TZ5       0.062700
     77 H252        31.2250    23.8580    13.0970 hc         1 TZ5       0.062700
     78 H27         31.8410    20.5440    10.9990 h4         1 TZ5       0.049100
     79 H281        32.7720    23.1660    15.1440 h1         1 TZ5       0.067700
     80 H282        32.6420    21.6310    16.0140 h1         1 TZ5       0.067700
     81 H291        30.3710    23.4760    15.1390 h1         1 TZ5       0.048200
     82 H292        30.9850    23.2100    16.7530 h1         1 TZ5       0.048200
     83 HN7         29.3740    21.7730    16.9320 hn         1 TZ5       0.441000
     84 H32         28.4020    23.8190    16.3260 ha         1 TZ5       0.104000
     85 H34         25.4910    23.0980    12.3750 ha         1 TZ5       0.135000
     86 H35         25.3090    25.1840    13.7030 ha         1 TZ5       0.123000
     87 H36         26.7620    25.5180    15.6880 ha         1 TZ5       0.118000
     88 H381        27.7990    19.2440    11.2830 hc         1 TZ5       0.065200
     89 H382        26.9710    18.3850    12.5630 hc         1 TZ5       0.065200
     90 H401        29.6800    18.9860    15.7740 hc         1 TZ5       0.064700
     91 H402        30.7340    19.3330    14.4400 hc         1 TZ5       0.064700
     92 H411        28.4100    17.3720    14.4600 hc         1 TZ5       0.049200
     93 H412        30.1140    17.0490    14.1780 hc         1 TZ5       0.049200
     94 H421        29.9820    18.4420    12.0730 hc         1 TZ5       0.048700
     95 H422        28.9050    17.0520    12.0100 hc         1 TZ5       0.048700
@<TRIPOS>BOND
     1     1     2 2   
     2     1    51 1   
     3     1    52 1   
     4     2     3 1   
     5     2     6 1   
     6     3     4 2   
     7     3    53 1   
     8     4     5 1   
     9     4    54 1   
    10     5     7 1   
    11     5    18 2   
    12     6     7 2   
    13     6    55 1   
    14     7     8 1   
    15     8     9 1   
    16     8    23 1   
    17     9    10 1   
    18     9    16 2   
    19    10    11 ar  
    20    10    15 ar  
    21    11    12 ar  
    22    11    56 1   
    23    12    13 ar  
    24    12    57 1   
    25    13    14 ar  
    26    13    58 1   
    27    14    15 ar  
    28    14    59 1   
    29    15    60 1   
    30    16    17 ar  
    31    16    18 ar  
    32    17    21 ar  
    33    17    61 1   
    34    18    19 ar  
    35    19    20 ar  
    36    19    62 1   
    37    20    21 ar  
    38    20    63 1   
    39    21    22 1   
    40    22    64 1   
    41    22    65 1   
    42    23    24 1   
    43    23    66 1   
    44    23    67 1   
    45    24    25 1   
    46    24    68 1   
    47    24    69 1   
    48    25    26 1   
    49    25    70 1   
    50    25    71 1   
    51    26    27 1   
    52    26    72 1   
    53    26    73 1   
    54    27    28 1   
    55    27    74 1   
    56    27    75 1   
    57    28    29 1   
    58    28    76 1   
    59    28    77 1   
    60    29    30 1   
    61    29    33 2   
    62    30    31 1   
    63    30    34 1   
    64    31    32 2   
    65    32    33 1   
    66    33    78 1   
    67    34    35 1   
    68    34    79 1   
    69    34    80 1   
    70    35    36 1   
    71    35    81 1   
    72    35    82 1   
    73    36    37 1   
    74    36    83 1   
    75    37    38 ar  
    76    37    47 ar  
    77    38    39 ar  
    78    38    40 ar  
    79    39    43 ar  
    80    39    84 1   
    81    40    41 ar  
    82    40    44 ar  
    83    41    42 ar  
    84    41    85 1   
    85    42    43 ar  
    86    42    86 1   
    87    43    87 1   
    88    44    45 ar  
    89    45    46 1   
    90    45    47 ar  
    91    46    50 1   
    92    46    88 1   
    93    46    89 1   
    94    47    48 1   
    95    48    49 1   
    96    48    90 1   
    97    48    91 1   
    98    49    50 1   
    99    49    92 1   
   100    49    93 1   
   101    50    94 1   
   102    50    95 1   
@<TRIPOS>SUBSTRUCTURE
     1 TZ5         1 TEMP              0 ****  ****    0 ROOT
