@<TRIPOS>MOLECULE
TZ5
   95   102     1     0     0
SMALL
No Charge or Current Charge


@<TRIPOS>ATOM
      1 N2          36.5790    21.3210    12.0030 nv         1 TZ5      -0.583700
      2 C8          37.2760    22.2360    11.2860 cc         1 TZ5       0.380900
      3 C7          38.6640    22.0520    11.0700 cc         1 TZ5      -0.302600
      4 C6          39.3920    22.9640    10.3350 cd         1 TZ5      -0.088200
      5 C5          38.7320    24.1330     9.7800 cd         1 TZ5      -0.093800
      6 C19         36.6040    23.3650    10.7560 cc         1 TZ5      -0.396600
      7 C18         37.3120    24.3110    10.0160 cd         1 TZ5      -0.008000
      8 N3          36.5830    25.4200     9.5060 na         1 TZ5       0.089000
      9 C11         37.2790    26.3270     8.6830 cc         1 TZ5       0.122000
     10 C12         36.5470    27.4310     8.0560 ca         1 TZ5      -0.136000
     11 C13         36.4350    28.6720     8.7140 ca         1 TZ5      -0.079500
     12 C14         35.7330    29.7310     8.1110 ca         1 TZ5      -0.101500
     13 C15         35.1440    29.5550     6.8460 ca         1 TZ5      -0.070000
     14 C16         35.2620    28.3220     6.1830 ca         1 TZ5      -0.101500
     15 C17         35.9640    27.2630     6.7850 ca         1 TZ5      -0.079500
     16 C10         38.7250    26.2120     8.4300 ca         1 TZ5      -0.075000
     17 C9          39.3960    27.1810     7.6420 ca         1 TZ5      -0.155000
     18 C4          39.4570    25.1380     8.9780 ca         1 TZ5       0.025000
     19 C3          40.8500    25.0620     8.7340 ca         1 TZ5      -0.087000
     20 C2          41.4980    26.0330     7.9530 ca         1 TZ5      -0.088000
     21 C1          40.7720    27.0940     7.4040 ca         1 TZ5       0.312000
     22 N1          41.3980    28.0460     6.6400 nv         1 TZ5      -1.073000
     23 C20         35.1390    25.6440     9.8140 c3         1 TZ5       0.033600
     24 C21         34.1790    24.8570     8.8850 c3         1 TZ5      -0.095400
     25 C22         32.6810    25.0360     9.2260 c3         1 TZ5      -0.073400
     26 C23         32.2790    24.4650    10.6050 c3         1 TZ5      -0.087400
     27 C24         30.7560    24.5310    10.8680 c3         1 TZ5      -0.069400
     28 C25         30.3480    24.0020    12.2610 c3         1 TZ5      -0.008100
     29 C26         30.6770    22.5430    12.4840 cc         1 TZ5      -0.171300
     30 N4          31.1020    21.9590    13.6590 na         1 TZ5       0.110800
     31 N5          31.3740    20.6330    13.4820 nc         1 TZ5      -0.212800
     32 N6          31.0900    20.3520    12.2400 nd         1 TZ5      -0.347000
     33 C27         30.6530    21.4940    11.6050 cd         1 TZ5       0.181900
     34 C28         31.3090    22.5910    14.9800 c3         1 TZ5       0.081600
     35 C29         30.0410    23.2080    15.6310 c3         1 TZ5       0.157800
     36 N7          28.9930    22.2140    15.9740 nu         1 TZ5      -0.903200
     37 C30         28.3370    21.3940    15.0350 ca         1 TZ5       0.228000
     38 C31         27.4940    21.9350    14.0290 ca         1 TZ5      -0.111000
     39 C32         27.1440    23.3070    14.0000 ca         1 TZ5      -0.115000
     40 C33         26.9710    21.0650    13.0380 ca         1 TZ5       0.268000
     41 C34         26.1570    21.5960    12.0200 ca         1 TZ5      -0.076000
     42 C35         25.8390    22.9630    11.9820 ca         1 TZ5      -0.107000
     43 C36         26.3260    23.8170    12.9800 ca         1 TZ5      -0.099000
     44 N8          27.2260    19.7410    13.0390 nb         1 TZ5      -0.673000
     45 C37         27.9950    19.2260    14.0200 ca         1 TZ5       0.376300
     46 C38         28.2100    17.7130    13.9230 c6         1 TZ5      -0.132700
     47 C39         28.5550    20.0000    15.0590 ca         1 TZ5      -0.070300
     48 C40         29.4320    19.3430    16.1470 c6         1 TZ5      -0.027100
     49 C41         29.3390    17.8000    16.1830 c6         1 TZ5      -0.075400
     50 C42         29.4080    17.2140    14.7600 c6         1 TZ5      -0.076400
     51 HN21        37.0400    20.4920    12.3550 hn         1 TZ5       0.326500
     52 HN22        35.5800    21.4250    12.1270 hn         1 TZ5       0.326500
     53 H7          39.1430    21.1730    11.4900 ha         1 TZ5       0.209000
     54 H6          40.4500    22.7750    10.1890 ha         1 TZ5       0.203000
     55 H19         35.5430    23.4160    10.9600 ha         1 TZ5       0.204000
     56 H13         36.8900    28.8150     9.6920 ha         1 TZ5       0.127500
     57 H14         35.6450    30.6860     8.6230 ha         1 TZ5       0.137000
     58 H15         34.6010    30.3750     6.3800 ha         1 TZ5       0.137000
     59 H16         34.8100    28.1870     5.2030 ha         1 TZ5       0.137000
     60 H17         36.0560    26.3120     6.2640 ha         1 TZ5       0.127500
     61 H9          38.8520    28.0140     7.2080 ha         1 TZ5       0.138000
     62 H3          41.4590    24.2620     9.1370 ha         1 TZ5       0.135000
     63 H2          42.5670    25.9560     7.7760 ha         1 TZ5       0.137000
     64 HN11        40.8960    28.8900     6.3680 hn         1 TZ5       0.475500
     65 HN12        42.4150    28.0720     6.5860 hn         1 TZ5       0.475500
     66 H201        34.9010    26.7100     9.7360 h1         1 TZ5       0.086700
     67 H202        34.9570    25.4000    10.8650 h1         1 TZ5       0.086700
     68 H211        34.4260    23.7880     8.9100 hc         1 TZ5       0.063200
     69 H212        34.3410    25.1830     7.8510 hc         1 TZ5       0.063200
     70 H221        32.0890    24.5370     8.4490 hc         1 TZ5       0.058700
     71 H222        32.4230    26.1020     9.1800 hc         1 TZ5       0.058700
     72 H231        32.7960    25.0180    11.3990 hc         1 TZ5       0.035200
     73 H232        32.6150    23.4230    10.6700 hc         1 TZ5       0.035200
     74 H241        30.2240    23.9660    10.0930 hc         1 TZ5       0.057200
     75 H242        30.4240    25.5730    10.7790 hc         1 TZ5       0.057200
     76 H251        29.2690    24.1500    12.3840 hc         1 TZ5       0.062700
     77 H252        30.8340    24.6250    13.0210 hc         1 TZ5       0.062700
     78 H27         30.3710    21.4960    10.5600 h4         1 TZ5       0.049100
     79 H281        32.0580    23.3820    14.8560 h1         1 TZ5       0.067700
     80 H282        31.7340    21.8480    15.6660 h1         1 TZ5       0.067700
     81 H291        29.6400    23.9760    14.9600 h1         1 TZ5       0.048200
     82 H292        30.3520    23.7260    16.5480 h1         1 TZ5       0.048200
     83 HN7         29.1330    21.7610    16.8780 hn         1 TZ5       0.441000
     84 H32         27.4830    23.9880    14.7740 ha         1 TZ5       0.104000
     85 H34         25.7630    20.9350    11.2530 ha         1 TZ5       0.135000
     86 H35         25.2060    23.3550    11.1890 ha         1 TZ5       0.123000
     87 H36         26.0680    24.8740    12.9660 ha         1 TZ5       0.118000
     88 H381        28.3550    17.4190    12.8750 hc         1 TZ5       0.065200
     89 H382        27.2950    17.2070    14.2600 hc         1 TZ5       0.065200
     90 H401        29.1610    19.7300    17.1390 hc         1 TZ5       0.064700
     91 H402        30.4790    19.6320    15.9840 hc         1 TZ5       0.064700
     92 H411        28.3980    17.4960    16.6620 hc         1 TZ5       0.049200
     93 H412        30.1500    17.3920    16.8020 hc         1 TZ5       0.049200
     94 H421        30.3510    17.5120    14.2800 hc         1 TZ5       0.048700
     95 H422        29.4080    16.1160    14.8010 hc         1 TZ5       0.048700
@<TRIPOS>BOND
     1     1     2 2   
     2     1    51 1   
     3     1    52 1   
     4     2     3 1   
     5     2     6 1   
     6     3     4 2   
     7     3    53 1   
     8     4     5 1   
     9     4    54 1   
    10     5     7 1   
    11     5    18 2   
    12     6     7 2   
    13     6    55 1   
    14     7     8 1   
    15     8     9 1   
    16     8    23 1   
    17     9    10 1   
    18     9    16 2   
    19    10    11 ar  
    20    10    15 ar  
    21    11    12 ar  
    22    11    56 1   
    23    12    13 ar  
    24    12    57 1   
    25    13    14 ar  
    26    13    58 1   
    27    14    15 ar  
    28    14    59 1   
    29    15    60 1   
    30    16    17 ar  
    31    16    18 ar  
    32    17    21 ar  
    33    17    61 1   
    34    18    19 ar  
    35    19    20 ar  
    36    19    62 1   
    37    20    21 ar  
    38    20    63 1   
    39    21    22 1   
    40    22    64 1   
    41    22    65 1   
    42    23    24 1   
    43    23    66 1   
    44    23    67 1   
    45    24    25 1   
    46    24    68 1   
    47    24    69 1   
    48    25    26 1   
    49    25    70 1   
    50    25    71 1   
    51    26    27 1   
    52    26    72 1   
    53    26    73 1   
    54    27    28 1   
    55    27    74 1   
    56    27    75 1   
    57    28    29 1   
    58    28    76 1   
    59    28    77 1   
    60    29    30 1   
    61    29    33 2   
    62    30    31 1   
    63    30    34 1   
    64    31    32 2   
    65    32    33 1   
    66    33    78 1   
    67    34    35 1   
    68    34    79 1   
    69    34    80 1   
    70    35    36 1   
    71    35    81 1   
    72    35    82 1   
    73    36    37 1   
    74    36    83 1   
    75    37    38 ar  
    76    37    47 ar  
    77    38    39 ar  
    78    38    40 ar  
    79    39    43 ar  
    80    39    84 1   
    81    40    41 ar  
    82    40    44 ar  
    83    41    42 ar  
    84    41    85 1   
    85    42    43 ar  
    86    42    86 1   
    87    43    87 1   
    88    44    45 ar  
    89    45    46 1   
    90    45    47 ar  
    91    46    50 1   
    92    46    88 1   
    93    46    89 1   
    94    47    48 1   
    95    48    49 1   
    96    48    90 1   
    97    48    91 1   
    98    49    50 1   
    99    49    92 1   
   100    49    93 1   
   101    50    94 1   
   102    50    95 1   
@<TRIPOS>SUBSTRUCTURE
     1 TZ5         1 TEMP              0 ****  ****    0 ROOT
