@<TRIPOS>MOLECULE
TZ8
   57    56     1     0     0
SMALL
abcg2


@<TRIPOS>ATOM
      1 N1          35.5190     9.3410    15.6740 ns         1 TZ8      -0.397900
      2 C7          35.9920     6.9450    15.6850 c3         1 TZ8      -0.084400
      3 C8          34.8730     6.6070    16.6660 c3         1 TZ8      -0.074400
      4 C9          33.5330     6.3080    16.0050 c3         1 TZ8      -0.081400
      5 C1          28.8600     9.1100    13.7950 c3         1 TZ8      -0.136400
      6 O5          31.4480     7.2120    13.0470 o          1 TZ8      -0.741000
      7 C5          34.7500    10.3950    15.4540 cs         1 TZ8       0.376000
      8 C6          35.7280     8.1760    14.8310 c3         1 TZ8       0.076000
      9 N3          29.2330     5.4990    15.1270 n8         1 TZ8      -0.991200
     10 C4          32.8440    11.8010    13.9930 c3         1 TZ8       0.046600
     11 O4          29.9040     5.7110    12.4670 o          1 TZ8      -0.741000
     12 C3          31.5750    11.5270    14.7960 c3         1 TZ8       0.030700
     13 O3          31.4660    16.6130    17.9260 o          1 TZ8      -0.731000
     14 N           30.7470    10.5870    14.0990 ns         1 TZ8      -0.471900
     15 C           28.4860     7.7390    14.3460 c3         1 TZ8      -0.073400
     16 O           29.5920     9.9530    15.9240 o          1 TZ8      -0.629100
     17 C10         32.4520     5.8770    16.9940 c3         1 TZ8      -0.075400
     18 C11         31.9880     6.9990    17.9150 c3         1 TZ8      -0.090100
     19 C12         30.8320    12.8490    15.0560 c          1 TZ8       0.575100
     20 C13         30.9270    14.9010    16.3990 c3         1 TZ8      -0.054000
     21 C14         31.8000    15.4830    17.5330 c          1 TZ8       0.711000
     22 C15         29.6620     6.7780    14.5730 c3         1 TZ8       0.012500
     23 C16         30.4160     6.5400    13.2480 c          1 TZ8       0.721000
     24 O2          32.7410    14.7750    17.9410 o          1 TZ8      -0.731000
     25 S           33.9300    10.3650    13.8940 ss         1 TZ8      -0.232600
     26 S1          34.6180    11.6350    16.5650 s          1 TZ8      -0.574400
     27 H1          36.0460     9.3710    16.5370 hn         1 TZ8       0.321500
     28 H2          36.1560     6.1070    15.0030 hc         1 TZ8       0.032700
     29 H3          36.9310     7.0820    16.2310 hc         1 TZ8       0.032700
     30 H4          35.1840     5.7320    17.2440 hc         1 TZ8       0.031200
     31 H5          34.7620     7.4160    17.3940 hc         1 TZ8       0.031200
     32 H6          32.2120    13.2690    16.5030 hn         1 TZ8       0.358500
     33 H7          33.1690     7.1790    15.4520 hc         1 TZ8       0.063200
     34 H8          33.6790     5.5180    15.2600 hc         1 TZ8       0.063200
     35 H9          29.3040     9.0230    12.8020 hc         1 TZ8       0.051700
     36 H10         27.9470     9.7010    13.6650 hc         1 TZ8       0.051700
     37 H12         34.8450     8.0180    14.2100 h1         1 TZ8       0.067700
     38 H13         36.5680     8.3550    14.1540 h1         1 TZ8       0.067700
     39 H14         28.5660     5.6550    15.8740 hn         1 TZ8       0.373000
     40 H15         28.7380     4.9940    14.4020 hn         1 TZ8       0.373000
     41 H17         33.4100    12.6330    14.4090 h1         1 TZ8       0.093200
     42 H18         32.6050    12.0480    12.9560 h1         1 TZ8       0.093200
     43 H19         31.8580    11.1010    15.7600 h1         1 TZ8       0.105700
     44 H21         30.7680    10.5880    13.0910 hn         1 TZ8       0.314500
     45 H22         27.9510     7.8660    15.2910 hc         1 TZ8       0.022700
     46 H23         27.7800     7.2700    13.6540 hc         1 TZ8       0.022700
     47 H24         31.5920     5.4970    16.4370 hc         1 TZ8       0.042200
     48 H25         32.8230     5.0380    17.5920 hc         1 TZ8       0.042200
     49 H26         31.1830     6.6640    18.5700 hc         1 TZ8       0.030700
     50 H27         32.7920     7.3690    18.5520 hc         1 TZ8       0.030700
     51 H28         31.6080     7.8460    17.3380 hc         1 TZ8       0.030700
     52 H29         30.9430    15.5900    15.5480 h1         1 TZ8       0.027200
     53 H30         29.8870    14.8560    16.7400 h1         1 TZ8       0.027200
     54 H31         30.3500     7.2370    15.2890 h1         1 TZ8       0.062700
     55 C2          29.7590     9.9070    14.7130 c          1 TZ8       0.622100
     56 N2          31.3910    13.5950    16.0080 ns         1 TZ8      -0.460900
     57 O1          29.8380    13.1650    14.4210 o          1 TZ8      -0.662100
@<TRIPOS>BOND
     1     1     7 1   
     2     1     8 1   
     3     1    27 1   
     4     2     3 1   
     5     2     8 1   
     6     2    28 1   
     7     2    29 1   
     8     3     4 1   
     9     3    30 1   
    10     3    31 1   
    11     4    17 1   
    12     4    33 1   
    13     4    34 1   
    14     5    15 1   
    15     5    35 1   
    16     5    36 1   
    17     5    55 1   
    18     6    23 1   
    19     7    25 1   
    20     7    26 2   
    21     8    37 1   
    22     8    38 1   
    23     9    22 1   
    24     9    39 1   
    25     9    40 1   
    26    10    12 1   
    27    10    25 1   
    28    10    41 1   
    29    10    42 1   
    30    11    23 1   
    31    12    14 1   
    32    12    19 1   
    33    12    43 1   
    34    13    21 1   
    35    14    44 1   
    36    14    55 1   
    37    15    22 1   
    38    15    45 1   
    39    15    46 1   
    40    16    55 2   
    41    17    18 1   
    42    17    47 1   
    43    17    48 1   
    44    18    49 1   
    45    18    50 1   
    46    18    51 1   
    47    19    56 1   
    48    19    57 2   
    49    20    21 1   
    50    20    52 1   
    51    20    53 1   
    52    20    56 1   
    53    21    24 1   
    54    22    23 1   
    55    22    54 1   
    56    32    56 1   
@<TRIPOS>SUBSTRUCTURE
     1 TZ8         1 TEMP              0 ****  ****    0 ROOT
