@<TRIPOS>MOLECULE
TZ8
   57    56     1     0     0
SMALL
No Charge or Current Charge


@<TRIPOS>ATOM
      1 N1          35.0310     8.9570    15.8820 ns         1 TZ8      -0.397900
      2 C7          35.4430     6.4890    15.9330 c3         1 TZ8      -0.084400
      3 C8          34.5430     6.1920    17.1590 c3         1 TZ8      -0.074400
      4 C9          33.0620     5.9100    16.8020 c3         1 TZ8      -0.081400
      5 C1          29.2060     8.4480    15.0110 c3         1 TZ8      -0.136400
      6 O5          29.7900     9.5470    11.7740 o          1 TZ8      -0.741000
      7 C5          34.3610    10.1250    15.6250 cs         1 TZ8       0.376000
      8 C6          35.0220     7.7170    15.0950 c3         1 TZ8       0.076000
      9 N3          31.1840     6.3070    12.4040 n8         1 TZ8      -0.991200
     10 C4          32.5130    11.6840    14.0380 c3         1 TZ8       0.046600
     11 O4          28.7510     7.7230    11.2990 o          1 TZ8      -0.741000
     12 C3          31.3360    11.6980    15.0470 c3         1 TZ8       0.030700
     13 O3          31.9100    17.6350    15.8150 o          1 TZ8      -0.731000
     14 N           30.3760    10.6010    14.7710 ns         1 TZ8      -0.471900
     15 C           29.7980     7.2230    14.2650 c3         1 TZ8      -0.073400
     16 O           30.9880     9.2040    16.4630 o          1 TZ8      -0.629100
     17 C10         32.1970     5.4380    17.9950 c3         1 TZ8      -0.075400
     18 C11         32.0350     6.4850    19.1170 c3         1 TZ8      -0.090100
     19 C12         30.6160    13.0740    15.0160 c          1 TZ8       0.575100
     20 C13         30.8250    15.5110    15.6860 c3         1 TZ8      -0.054000
     21 C14         31.9120    16.4840    16.2270 c          1 TZ8       0.711000
     22 C15         30.5340     7.5590    12.9380 c3         1 TZ8       0.012500
     23 C16         29.5940     8.3500    11.9320 c          1 TZ8       0.721000
     24 O2          32.7500    16.0480    17.0050 o          1 TZ8      -0.731000
     25 S           33.4620    10.0950    14.0860 ss         1 TZ8      -0.232600
     26 S1          34.4710    11.4500    16.6350 s          1 TZ8      -0.574400
     27 H1          35.5750     8.9500    16.7370 hn         1 TZ8       0.321500
     28 H2          35.4560     5.6080    15.2790 hc         1 TZ8       0.032700
     29 H3          36.4740     6.6330    16.2780 hc         1 TZ8       0.032700
     30 H4          34.9540     5.3210    17.6840 hc         1 TZ8       0.031200
     31 H5          34.5990     7.0340    17.8590 hc         1 TZ8       0.031200
     32 H6          32.2120    13.8990    16.0150 hn         1 TZ8       0.358500
     33 H7          32.6090     6.8120    16.3750 hc         1 TZ8       0.063200
     34 H8          33.0250     5.1400    16.0220 hc         1 TZ8       0.063200
     35 H9          28.5010     8.9590    14.3460 hc         1 TZ8       0.051700
     36 H10         28.6700     8.0760    15.8910 hc         1 TZ8       0.051700
     37 H12         34.0180     7.5380    14.6890 h1         1 TZ8       0.067700
     38 H13         35.7120     7.8350    14.2490 h1         1 TZ8       0.067700
     39 H14         31.6120     5.7890    13.1780 hn         1 TZ8       0.373000
     40 H15         30.4480     5.6790    12.0580 hn         1 TZ8       0.373000
     41 H17         33.2010    12.5160    14.2360 h1         1 TZ8       0.093200
     42 H18         32.1150    11.8150    13.0230 h1         1 TZ8       0.093200
     43 H19         31.7300    11.5790    16.0630 h1         1 TZ8       0.105700
     44 H21         29.7510    10.6980    13.9780 hn         1 TZ8       0.314500
     45 H22         30.4860     6.7020    14.9420 hc         1 TZ8       0.022700
     46 H23         28.9810     6.5230    14.0520 hc         1 TZ8       0.022700
     47 H24         31.2010     5.1750    17.6190 hc         1 TZ8       0.042200
     48 H25         32.6250     4.5200    18.4160 hc         1 TZ8       0.042200
     49 H26         31.3480     6.1120    19.8870 hc         1 TZ8       0.030700
     50 H27         32.9960     6.7000    19.5990 hc         1 TZ8       0.030700
     51 H28         31.6260     7.4210    18.7190 hc         1 TZ8       0.030700
     52 H29         30.5110    15.8470    14.6890 h1         1 TZ8       0.027200
     53 H30         29.9600    15.5460    16.3610 h1         1 TZ8       0.027200
     54 H31         31.3510     8.2480    13.1890 h1         1 TZ8       0.062700
     55 C2          30.2880     9.4280    15.4860 c          1 TZ8       0.622100
     56 N2          31.3120    14.1150    15.5950 ns         1 TZ8      -0.460900
     57 O1          29.5070    13.2420    14.5190 o          1 TZ8      -0.662100
@<TRIPOS>BOND
     1     1     7 1   
     2     1     8 1   
     3     1    27 1   
     4     2     3 1   
     5     2     8 1   
     6     2    28 1   
     7     2    29 1   
     8     3     4 1   
     9     3    30 1   
    10     3    31 1   
    11     4    17 1   
    12     4    33 1   
    13     4    34 1   
    14     5    15 1   
    15     5    35 1   
    16     5    36 1   
    17     5    55 1   
    18     6    23 1   
    19     7    25 1   
    20     7    26 2   
    21     8    37 1   
    22     8    38 1   
    23     9    22 1   
    24     9    39 1   
    25     9    40 1   
    26    10    12 1   
    27    10    25 1   
    28    10    41 1   
    29    10    42 1   
    30    11    23 1   
    31    12    14 1   
    32    12    19 1   
    33    12    43 1   
    34    13    21 1   
    35    14    44 1   
    36    14    55 1   
    37    15    22 1   
    38    15    45 1   
    39    15    46 1   
    40    16    55 2   
    41    17    18 1   
    42    17    47 1   
    43    17    48 1   
    44    18    49 1   
    45    18    50 1   
    46    18    51 1   
    47    19    56 1   
    48    19    57 2   
    49    20    21 1   
    50    20    52 1   
    51    20    53 1   
    52    20    56 1   
    53    21    24 1   
    54    22    23 1   
    55    22    54 1   
    56    32    56 1   
@<TRIPOS>SUBSTRUCTURE
     1 TZ8         1 TEMP              0 ****  ****    0 ROOT
