@<TRIPOS>MOLECULE
TZ9
   18    19     1     0     0
SMALL
No Charge or Current Charge


@<TRIPOS>ATOM
      1 C4         -20.1640     3.1130   -50.8950 c6         1 TZ9       0.192800
      2 C5         -20.8520     2.4110   -49.7320 c2         1 TZ9      -0.245200
      3 C6         -20.5660     1.1300   -49.4310 ce         1 TZ9      -0.143200
      4 C7         -19.5220     0.4120   -50.1940 ca         1 TZ9      -0.081800
      5 C8         -19.3170    -0.9720   -50.0420 ca         1 TZ9      -0.120000
      6 C          -18.2900    -1.6100   -50.7570 ca         1 TZ9       0.162000
      7 O          -18.8720     2.5250   -51.1910 os         1 TZ9      -0.329100
      8 C1         -17.4560    -0.8760   -51.6160 ca         1 TZ9      -0.157000
      9 C2         -17.6550     0.5060   -51.7630 ca         1 TZ9       0.167000
     10 C3         -18.6950     1.1550   -51.0650 ca         1 TZ9       0.087100
     11 F          -18.0960    -2.9390   -50.6110 f          1 TZ9      -0.177000
     12 F1         -16.8420     1.2080   -52.5870 f          1 TZ9      -0.163000
     13 H1         -20.0290     4.1830   -50.6800 h1         1 TZ9       0.065700
     14 H2         -21.6090     2.9770   -49.1860 ha         1 TZ9       0.194000
     15 H3         -21.0700     0.5910   -48.6250 ha         1 TZ9       0.192000
     16 H4         -19.9460    -1.5530   -49.3720 ha         1 TZ9       0.138000
     17 H5         -16.6590    -1.3740   -52.1600 ha         1 TZ9       0.153000
     18 H7         -20.7970     3.0280   -51.7900 h1         1 TZ9       0.065700
@<TRIPOS>BOND
     1     1     2 1   
     2     1     7 1   
     3     1    13 1   
     4     1    18 1   
     5     2     3 2   
     6     2    14 1   
     7     3     4 1   
     8     3    15 1   
     9     4     5 ar  
    10     4    10 ar  
    11     5     6 ar  
    12     5    16 1   
    13     6     8 ar  
    14     6    11 1   
    15     7    10 1   
    16     8     9 ar  
    17     8    17 1   
    18     9    10 ar  
    19     9    12 1   
@<TRIPOS>SUBSTRUCTURE
     1 TZ9         1 TEMP              0 ****  ****    0 ROOT
