@<TRIPOS>MOLECULE
TZ9
   18    19     1     0     0
SMALL
abcg2


@<TRIPOS>ATOM
      1 C4         -20.1510     3.0480   -50.9060 c6         1 TZ9       0.192800
      2 C5         -20.8350     2.3960   -49.7450 c2         1 TZ9      -0.245200
      3 C6         -20.5430     1.1370   -49.4150 ce         1 TZ9      -0.143200
      4 C7         -19.5290     0.4110   -50.1700 ca         1 TZ9      -0.081800
      5 C8         -19.3250    -0.9650   -50.0470 ca         1 TZ9      -0.120000
      6 C          -18.3120    -1.5580   -50.7730 ca         1 TZ9       0.162000
      7 O          -18.8290     2.5140   -51.1320 os         1 TZ9      -0.329100
      8 C1         -17.4800    -0.8470   -51.6180 ca         1 TZ9      -0.157000
      9 C2         -17.6990     0.5160   -51.7260 ca         1 TZ9       0.167000
     10 C3         -18.7110     1.1620   -51.0300 ca         1 TZ9       0.087100
     11 F          -18.1170    -2.8960   -50.6560 f          1 TZ9      -0.177000
     12 F1         -16.8960     1.2460   -52.5330 f          1 TZ9      -0.163000
     13 H1         -20.0020     4.1140   -50.7410 h1         1 TZ9       0.065700
     14 H2         -21.5900     2.9660   -49.2180 ha         1 TZ9       0.194000
     15 H3         -21.0410     0.6300   -48.5980 ha         1 TZ9       0.192000
     16 H4         -19.9450    -1.5560   -49.3870 ha         1 TZ9       0.138000
     17 H5         -16.6910    -1.3290   -52.1780 ha         1 TZ9       0.153000
     18 H7         -20.7420     2.9240   -51.8240 h1         1 TZ9       0.065700
@<TRIPOS>BOND
     1     1     2 1   
     2     1     7 1   
     3     1    13 1   
     4     1    18 1   
     5     2     3 2   
     6     2    14 1   
     7     3     4 1   
     8     3    15 1   
     9     4     5 ar  
    10     4    10 ar  
    11     5     6 ar  
    12     5    16 1   
    13     6     8 ar  
    14     6    11 1   
    15     7    10 1   
    16     8     9 ar  
    17     8    17 1   
    18     9    10 ar  
    19     9    12 1   
@<TRIPOS>SUBSTRUCTURE
     1 TZ9         1 TEMP              0 ****  ****    0 ROOT
