@<TRIPOS>MOLECULE
TZA
   29    29     1     0     0
SMALL
abcg2


@<TRIPOS>ATOM
      1 NH           1.7080     0.1710    -4.3450 n8         1 TZA      -0.974200
      2 CZ           0.4270    -0.4130    -3.9280 c6         1 TZA       0.236900
      3 CE2         -0.5410     0.6800    -3.5870 c2         1 TZA      -0.241200
      4 CD2         -1.1570     0.7910    -2.4170 c2         1 TZA      -0.174700
      5 CE1          0.6450    -1.3320    -2.7640 c2         1 TZA      -0.241200
      6 CD1          0.0340    -1.2170    -1.5910 c2         1 TZA      -0.174700
      7 CG          -0.9440    -0.1330    -1.2570 c6         1 TZA      -0.010300
      8 CX          -0.5120     0.6720    -0.0150 c3         1 TZA      -0.066400
      9 CB          -0.5160    -0.1320     1.2800 c3         1 TZA      -0.102400
     10 CA          -0.1720     0.7100     2.5220 c3         1 TZA       0.021500
     11 N            1.1690     1.2720     2.5180 n8         1 TZA      -0.989200
     12 C           -0.3930    -0.1610     3.7770 c          1 TZA       0.723000
     13 O            0.6170    -0.6590     4.3130 o          1 TZA      -0.733000
     14 O2          -1.5790    -0.3320     4.1260 o          1 TZA      -0.733000
     15 HNH1         2.3070    -0.5750    -4.6810 hn         1 TZA       0.379000
     16 HNH2         1.5460     0.7590    -5.1540 hn         1 TZA       0.379000
     17 HCZ         -0.0190    -1.0060    -4.7440 h1         1 TZA       0.011700
     18 HE22        -0.7480     1.4020    -4.3720 ha         1 TZA       0.159000
     19 HD22        -1.8580     1.6050    -2.2580 ha         1 TZA       0.176500
     20 HE11         1.3470    -2.1460    -2.9220 ha         1 TZA       0.159000
     21 HD11         0.2470    -1.9440    -0.8150 ha         1 TZA       0.176500
     22 HCG         -1.9070    -0.5990    -1.0050 hc         1 TZA       0.065700
     23 HCX1        -1.1990     1.5180     0.0970 hc         1 TZA       0.035700
     24 HCX2         0.4760     1.0990    -0.2120 hc         1 TZA       0.035700
     25 HCB1         0.1940    -0.9640     1.2210 hc         1 TZA       0.042700
     26 HCB2        -1.5080    -0.5720     1.4150 hc         1 TZA       0.042700
     27 HCA         -0.8880     1.5400     2.5600 h1         1 TZA       0.042700
     28 HN1          1.8290     0.5200     2.6770 hn         1 TZA       0.376500
     29 HN2          1.3870     1.6630     1.6100 hn         1 TZA       0.376500
@<TRIPOS>BOND
     1     1     2 1   
     2     1    15 1   
     3     1    16 1   
     4     2     3 1   
     5     2     5 1   
     6     2    17 1   
     7     3     4 2   
     8     3    18 1   
     9     4     7 1   
    10     4    19 1   
    11     5     6 2   
    12     5    20 1   
    13     6     7 1   
    14     6    21 1   
    15     7     8 1   
    16     7    22 1   
    17     8     9 1   
    18     8    23 1   
    19     8    24 1   
    20     9    10 1   
    21     9    25 1   
    22     9    26 1   
    23    10    11 1   
    24    10    12 1   
    25    10    27 1   
    26    11    28 1   
    27    11    29 1   
    28    12    13 1   
    29    12    14 1   
@<TRIPOS>SUBSTRUCTURE
     1 TZA         1 TEMP              0 ****  ****    0 ROOT
