@<TRIPOS>MOLECULE
TZA
   29    29     1     0     0
SMALL
No Charge or Current Charge


@<TRIPOS>ATOM
      1 NH           1.7860     0.4220    -3.7880 n8         1 TZA      -0.974200
      2 CZ           0.5340    -0.3220    -3.8140 c6         1 TZA       0.236900
      3 CE2         -0.6300     0.6280    -3.6180 c2         1 TZA      -0.241200
      4 CD2         -1.3740     0.6670    -2.4980 c2         1 TZA      -0.174700
      5 CE1          0.5650    -1.4150    -2.7660 c2         1 TZA      -0.241200
      6 CD1         -0.1730    -1.3860    -1.6420 c2         1 TZA      -0.174700
      7 CG          -1.1270    -0.2450    -1.3000 c6         1 TZA      -0.010300
      8 CX          -0.5870     0.5980    -0.1070 c3         1 TZA      -0.066400
      9 CB          -0.4670    -0.1690     1.2370 c3         1 TZA      -0.102400
     10 CA          -0.0700     0.7130     2.4520 c3         1 TZA       0.021500
     11 N            1.3070     1.2910     2.2450 n8         1 TZA      -0.989200
     12 C           -0.3160    -0.0610     3.8170 c          1 TZA       0.723000
     13 O            0.4070    -1.0140     4.0890 o          1 TZA      -0.733000
     14 O2          -1.1720     0.3660     4.5810 o          1 TZA      -0.733000
     15 HNH1         2.5470    -0.2250    -4.0190 hn         1 TZA       0.379000
     16 HNH2         1.7790     1.0870    -4.5670 hn         1 TZA       0.379000
     17 HCZ          0.4540    -0.7840    -4.8100 h1         1 TZA       0.011700
     18 HE22        -0.8500     1.2930    -4.4530 ha         1 TZA       0.159000
     19 HD22        -2.2060     1.3680    -2.4090 ha         1 TZA       0.176500
     20 HE11         1.2230    -2.2590    -2.9750 ha         1 TZA       0.159000
     21 HD11        -0.1230    -2.2090    -0.9270 ha         1 TZA       0.176500
     22 HCG         -2.0910    -0.6740    -0.9930 hc         1 TZA       0.065700
     23 HCX1        -1.2510     1.4560     0.0520 hc         1 TZA       0.035700
     24 HCX2         0.3910     1.0150    -0.3770 hc         1 TZA       0.035700
     25 HCB1         0.2550    -0.9890     1.1350 hc         1 TZA       0.042700
     26 HCB2        -1.4360    -0.6350     1.4540 hc         1 TZA       0.042700
     27 HCA         -0.7660     1.5640     2.4630 h1         1 TZA       0.042700
     28 HN1          1.9930     0.5300     2.3150 hn         1 TZA       0.376500
     29 HN2          1.3900     1.6090     1.2740 hn         1 TZA       0.376500
@<TRIPOS>BOND
     1     1     2 1   
     2     1    15 1   
     3     1    16 1   
     4     2     3 1   
     5     2     5 1   
     6     2    17 1   
     7     3     4 2   
     8     3    18 1   
     9     4     7 1   
    10     4    19 1   
    11     5     6 2   
    12     5    20 1   
    13     6     7 1   
    14     6    21 1   
    15     7     8 1   
    16     7    22 1   
    17     8     9 1   
    18     8    23 1   
    19     8    24 1   
    20     9    10 1   
    21     9    25 1   
    22     9    26 1   
    23    10    11 1   
    24    10    12 1   
    25    10    27 1   
    26    11    28 1   
    27    11    29 1   
    28    12    13 1   
    29    12    14 1   
@<TRIPOS>SUBSTRUCTURE
     1 TZA         1 TEMP              0 ****  ****    0 ROOT
