@<TRIPOS>MOLECULE
TZB
   21    21     1     0     0
SMALL
No Charge or Current Charge


@<TRIPOS>ATOM
      1 C31          0.1370     0.4930     2.9010 c2         1 TZB      -0.339200
      2 C41         -0.1490     0.4560     4.3910 c3         1 TZB      -0.027900
      3 C21         -0.5230    -0.1760     1.9280 ce         1 TZB       0.083400
      4 N           -1.6010    -1.0000     2.2720 nv         1 TZB      -0.928000
      5 C2          -0.1740    -0.0760     0.4570 ce         1 TZB       0.475500
      6 S6           1.4410     0.5840     0.0410 ss         1 TZB      -0.449200
      7 C4           1.4200    -0.5950    -1.3750 c5         1 TZB       0.074600
      8 C5          -0.0840    -0.6690    -1.7520 c5         1 TZB      -0.050500
      9 C6          -0.4460     0.5710    -2.6530 c          1 TZB       0.737000
     10 N1          -0.8290    -0.7550    -0.4420 n2         1 TZB      -0.519900
     11 O71          0.0030     0.6060    -3.7920 o          1 TZB      -0.703000
     12 HC3          0.9700     1.1500     2.6480 ha         1 TZB       0.190000
     13 HC1          0.5560     1.0880     4.9430 hc         1 TZB       0.020033
     14 HC2         -1.1610     0.8190     4.6110 hc         1 TZB       0.020033
     15 HC3A        -0.0600    -0.5630     4.7870 hc         1 TZB       0.020033
     16 HN1         -2.1700    -1.4080     1.5310 hn         1 TZB       0.447000
     17 HN2         -1.9790    -0.9780     3.2170 hn         1 TZB       0.447000
     18 HC41         1.7860    -1.5730    -1.0350 h1         1 TZB       0.066200
     19 HC42         2.0610    -0.2490    -2.1970 h1         1 TZB       0.066200
     20 HC5         -0.2820    -1.5630    -2.3560 h1         1 TZB       0.073700
     21 O7          -1.2200     1.4290    -2.2450 o          1 TZB      -0.703000
@<TRIPOS>BOND
     1     1     2 1   
     2     1     3 2   
     3     1    12 1   
     4     2    13 1   
     5     2    14 1   
     6     2    15 1   
     7     3     4 1   
     8     3     5 1   
     9     4    16 1   
    10     4    17 1   
    11     5     6 1   
    12     5    10 2   
    13     6     7 1   
    14     7     8 1   
    15     7    18 1   
    16     7    19 1   
    17     8     9 1   
    18     8    10 1   
    19     8    20 1   
    20     9    11 1   
    21     9    21 1   
@<TRIPOS>SUBSTRUCTURE
     1 TZB         1 TEMP              0 ****  ****    0 ROOT
