@<TRIPOS>MOLECULE
TZB
   21    21     1     0     0
SMALL
abcg2


@<TRIPOS>ATOM
      1 C31          0.2810     0.3090     2.9340 c2         1 TZB      -0.339200
      2 C41         -0.1940     0.4250     4.3470 c3         1 TZB      -0.027900
      3 C21         -0.4490    -0.2450     1.9510 ce         1 TZB       0.083400
      4 N           -1.6920    -0.8240     2.1430 nv         1 TZB      -0.928000
      5 C2           0.0530    -0.3220     0.5720 ce         1 TZB       0.475500
      6 S6           1.5630     0.4990     0.1060 ss         1 TZB      -0.449200
      7 C4           1.5130    -0.4120    -1.4640 c5         1 TZB       0.074600
      8 C5           0.0250    -0.7430    -1.6470 c5         1 TZB      -0.050500
      9 C6          -0.7120     0.3740    -2.4510 c          1 TZB       0.737000
     10 N1          -0.5680    -0.9300    -0.3450 n2         1 TZB      -0.519900
     11 O71         -0.2140     0.6180    -3.5660 o          1 TZB      -0.703000
     12 HC3          1.2710     0.6780     2.7000 ha         1 TZB       0.190000
     13 HC1          0.5810     0.8350     4.9900 hc         1 TZB       0.020033
     14 HC2         -1.0680     1.0780     4.4370 hc         1 TZB       0.020033
     15 HC3A        -0.4850    -0.5440     4.7620 hc         1 TZB       0.020033
     16 HN1         -2.2460    -0.8840     1.3030 hn         1 TZB       0.447000
     17 HN2         -2.2250    -0.4480     2.9120 hn         1 TZB       0.447000
     18 HC41         2.1300    -1.3070    -1.3740 h1         1 TZB       0.066200
     19 HC42         1.9020     0.2020    -2.2730 h1         1 TZB       0.066200
     20 HC5         -0.0630    -1.6690    -2.2250 h1         1 TZB       0.073700
     21 O7          -1.7070     0.9000    -1.9320 o          1 TZB      -0.703000
@<TRIPOS>BOND
     1     1     2 1   
     2     1     3 2   
     3     1    12 1   
     4     2    13 1   
     5     2    14 1   
     6     2    15 1   
     7     3     4 1   
     8     3     5 1   
     9     4    16 1   
    10     4    17 1   
    11     5     6 1   
    12     5    10 2   
    13     6     7 1   
    14     7     8 1   
    15     7    18 1   
    16     7    19 1   
    17     8     9 1   
    18     8    10 1   
    19     8    20 1   
    20     9    11 1   
    21     9    21 1   
@<TRIPOS>SUBSTRUCTURE
     1 TZB         1 TEMP              0 ****  ****    0 ROOT
