@<TRIPOS>MOLECULE
TZC
   14    14     1     0     0
SMALL
bcc


@<TRIPOS>ATOM
      1 N1          -0.0640     0.0700    -0.0080 na         1 TZC      -0.113100
      2 N2          -0.7890    -1.0660    -0.0390 nc         1 TZC      -0.570100
      3 C3          -2.0110    -0.6280    -0.0320 cd         1 TZC       0.590200
      4 N4          -2.1270     0.7290     0.0050 nd         1 TZC      -0.594000
      5 C5          -0.9000     1.1420     0.0200 cc         1 TZC       0.444700
      6 C6           1.3170     0.0040    -0.0010 cz         1 TZC       0.568300
      7 N7           2.0090     1.1120    -0.0270 nv         1 TZC      -0.461200
      8 N8           1.8580    -1.1810     0.0320 nv         1 TZC      -0.461200
      9 H3          -2.8590    -1.2940    -0.0550 h5         1 TZC       0.115800
     10 H5          -0.5740     2.1690     0.0540 h5         1 TZC       0.096800
     11 HN71         3.0170     1.0850    -0.0100 hn         1 TZC       0.346450
     12 HN72         1.5900     2.0270    -0.0750 hn         1 TZC       0.346450
     13 HN81         1.2810    -2.0100     0.0590 hn         1 TZC       0.346450
     14 HN82         2.8600    -1.2970     0.0260 hn         1 TZC       0.346450
@<TRIPOS>BOND
     1     1     2 1   
     2     1     5 1   
     3     1     6 2   
     4     2     3 2   
     5     3     4 1   
     6     3     9 1   
     7     4     5 2   
     8     5    10 1   
     9     6     7 1   
    10     6     8 1   
    11     7    11 1   
    12     7    12 1   
    13     8    13 1   
    14     8    14 1   
@<TRIPOS>SUBSTRUCTURE
     1 TZC         1 TEMP              0 ****  ****    0 ROOT
