@<TRIPOS>MOLECULE
TZC
   14    14     1     0     0
SMALL
No Charge or Current Charge


@<TRIPOS>ATOM
      1 N1          -0.0920    -0.0280    -0.0680 na         1 TZC      -0.518400
      2 N2          -0.8760    -1.0980    -0.4110 nc         1 TZC      -0.570100
      3 C3          -2.0980    -0.5900    -0.2190 cd         1 TZC       0.590200
      4 N4          -2.0800     0.7180     0.2680 nd         1 TZC      -0.594000
      5 C5          -0.8060     1.0520     0.3790 cc         1 TZC       0.444700
      6 C6           1.2700     0.0290     0.0500 cz         1 TZC       0.973600
      7 N7           1.9540     1.0990    -0.2840 nv         1 TZC      -0.561800
      8 N8           1.9260    -1.0700     0.3190 nv         1 TZC      -0.561800
      9 H3          -3.0230    -1.1280    -0.4000 h5         1 TZC       0.115800
     10 H5          -0.3890     1.9840     0.7510 h5         1 TZC       0.096800
     11 HN71         2.9560     1.1380    -0.1940 hn         1 TZC       0.396750
     12 HN72         1.5320     1.8370    -0.8230 hn         1 TZC       0.396750
     13 HN81         1.4110    -1.9320     0.3830 hn         1 TZC       0.396750
     14 HN82         2.9210    -1.1490     0.1990 hn         1 TZC       0.396750
@<TRIPOS>BOND
     1     1     2 1   
     2     1     5 1   
     3     1     6 2   
     4     2     3 2   
     5     3     4 1   
     6     3     9 1   
     7     4     5 2   
     8     5    10 1   
     9     6     7 1   
    10     6     8 1   
    11     7    11 1   
    12     7    12 1   
    13     8    13 1   
    14     8    14 1   
@<TRIPOS>SUBSTRUCTURE
     1 TZC         1 TEMP              0 ****  ****    0 ROOT
