@<TRIPOS>MOLECULE
TZE
   18    18     1     0     0
SMALL
No Charge or Current Charge


@<TRIPOS>ATOM
      1 C1          -0.3840    -0.2730     2.3940 cc         1 TZE       0.417300
      2 N1           0.9200    -0.2440     2.1450 nd         1 TZE      -0.636000
      3 C2           1.1360     0.0690     0.8120 cd         1 TZE       0.292300
      4 C3          -0.0090     0.2740     0.0690 cc         1 TZE      -0.230300
      5 S1          -1.4360     0.0710     1.0470 ss         1 TZE      -0.047400
      6 CM           2.5460     0.1570     0.2950 c3         1 TZE      -0.120400
      7 C4          -0.1210     0.6290    -1.3940 c3         1 TZE      -0.005100
      8 C5          -0.2710    -0.6120    -2.2980 c3         1 TZE       0.163600
      9 OXT         -0.3670    -0.2120    -3.6710 oh         1 TZE      -0.663000
     10 H1          -0.8210    -0.4940     3.3600 h5         1 TZE       0.052100
     11 H1M          2.6760    -0.4710    -0.5930 hc         1 TZE       0.050367
     12 H2M          2.7940     1.1880     0.0190 hc         1 TZE       0.050367
     13 H3M          3.2730    -0.1730     1.0460 hc         1 TZE       0.050367
     14 H11         -0.9850     1.2870    -1.5490 hc         1 TZE       0.066700
     15 H12          0.7600     1.1990    -1.7130 hc         1 TZE       0.066700
     16 H21          0.5960    -1.2700    -2.1530 h1         1 TZE       0.023200
     17 H22         -1.1700    -1.1680    -2.0000 h1         1 TZE       0.023200
     18 HXT         -0.4650    -1.0340    -4.2020 ho         1 TZE       0.446000
@<TRIPOS>BOND
     1     1     2 2   
     2     1     5 1   
     3     1    10 1   
     4     2     3 1   
     5     3     4 2   
     6     3     6 1   
     7     4     5 1   
     8     4     7 1   
     9     6    11 1   
    10     6    12 1   
    11     6    13 1   
    12     7     8 1   
    13     7    14 1   
    14     7    15 1   
    15     8     9 1   
    16     8    16 1   
    17     8    17 1   
    18     9    18 1   
@<TRIPOS>SUBSTRUCTURE
     1 TZE         1 TEMP              0 ****  ****    0 ROOT
