@<TRIPOS>MOLECULE
TZE
   18    18     1     0     0
SMALL
bcc


@<TRIPOS>ATOM
      1 C1          -0.3770    -0.3920     2.3350 cc         1 TZE       0.417300
      2 N1           0.8890    -0.3480     2.0800 nd         1 TZE      -0.636000
      3 C2           1.1290     0.0380     0.7870 cd         1 TZE       0.357600
      4 C3           0.0130     0.2980     0.0450 cc         1 TZE      -0.150700
      5 S1          -1.3870     0.0350     1.0170 ss         1 TZE      -0.192300
      6 CM           2.5400     0.1220     0.3060 c3         1 TZE      -0.120400
      7 C4          -0.0980     0.6790    -1.3940 c3         1 TZE      -0.005100
      8 C5          -0.3010    -0.5440    -2.2800 c3         1 TZE       0.140400
      9 OXT         -0.3750    -0.1110    -3.6190 oh         1 TZE      -0.600800
     10 H1          -0.7940    -0.6660     3.2940 h5         1 TZE       0.052100
     11 H1M          2.9370    -0.8680     0.0720 hc         1 TZE       0.050367
     12 H2M          2.6280     0.7310    -0.5920 hc         1 TZE       0.050367
     13 H3M          3.1810     0.5570     1.0720 hc         1 TZE       0.050367
     14 H11         -0.9230     1.3800    -1.5420 hc         1 TZE       0.066700
     15 H12          0.8140     1.1980    -1.6990 hc         1 TZE       0.066700
     16 H21          0.5330    -1.2400    -2.1220 h1         1 TZE       0.023200
     17 H22         -1.2160    -1.0650    -1.9710 h1         1 TZE       0.023200
     18 HXT         -0.5200    -0.8800    -4.1770 ho         1 TZE       0.407000
@<TRIPOS>BOND
     1     1     2 2   
     2     1     5 1   
     3     1    10 1   
     4     2     3 1   
     5     3     4 2   
     6     3     6 1   
     7     4     5 1   
     8     4     7 1   
     9     6    11 1   
    10     6    12 1   
    11     6    13 1   
    12     7     8 1   
    13     7    14 1   
    14     7    15 1   
    15     8     9 1   
    16     8    16 1   
    17     8    17 1   
    18     9    18 1   
@<TRIPOS>SUBSTRUCTURE
     1 TZE         1 TEMP              0 ****  ****    0 ROOT
