@<TRIPOS>MOLECULE
TZF
   19    20     1     0     0
SMALL
No Charge or Current Charge


@<TRIPOS>ATOM
      1 CAD          0.6070    -1.2500    -0.2850 ca         1 TZF      -0.064000
      2 CAB          2.0130    -1.2840    -0.3270 ca         1 TZF      -0.166500
      3 CAJ          2.7530    -0.1080    -0.1430 ca         1 TZF       0.146100
      4 OAA          4.1140    -0.1550    -0.1870 oh         1 TZF      -0.527100
      5 CAC          2.0910     1.1090     0.0830 ca         1 TZF      -0.166500
      6 CAE          0.6850     1.1480     0.1260 ca         1 TZF      -0.064000
      7 CAK         -0.0690    -0.0320    -0.0570 ca         1 TZF      -0.032200
      8 NAL         -1.4680     0.0070    -0.0080 na         1 TZF       0.043500
      9 CAG         -2.2650    -0.9610     0.5460 cc         1 TZF       0.417400
     10 NAH         -3.5200    -0.5850     0.3490 nd         1 TZF      -0.697000
     11 CAF         -3.4160     0.6200    -0.3440 cd         1 TZF       0.518900
     12 NAI         -2.1670     1.0100    -0.5880 nc         1 TZF      -0.535800
     13 H1           0.0500    -2.1720    -0.4390 ha         1 TZF       0.133500
     14 H2           2.5270    -2.2250    -0.5060 ha         1 TZF       0.129000
     15 H3           4.4630     0.7510    -0.0410 ho         1 TZF       0.470000
     16 H4           2.6560     2.0270     0.2270 ha         1 TZF       0.129000
     17 H5           0.1820     2.0960     0.3050 ha         1 TZF       0.133500
     18 H6          -1.8970    -1.8470     1.0500 h5         1 TZF       0.066100
     19 H7          -4.2930     1.1770    -0.6550 h5         1 TZF       0.065100
@<TRIPOS>BOND
     1     1     2 ar  
     2     1     7 ar  
     3     1    13 1   
     4     2     3 ar  
     5     2    14 1   
     6     3     4 1   
     7     3     5 ar  
     8     4    15 1   
     9     5     6 ar  
    10     5    16 1   
    11     6     7 ar  
    12     6    17 1   
    13     7     8 1   
    14     8     9 1   
    15     8    12 1   
    16     9    10 2   
    17     9    18 1   
    18    10    11 1   
    19    11    12 2   
    20    11    19 1   
@<TRIPOS>SUBSTRUCTURE
     1 TZF         1 TEMP              0 ****  ****    0 ROOT
