@<TRIPOS>MOLECULE
TZF
   19    20     1     0     0
SMALL
abcg2


@<TRIPOS>ATOM
      1 CAD          0.6380    -1.2480    -0.2660 ca         1 TZF      -0.064000
      2 CAB          2.0220    -1.2680    -0.2830 ca         1 TZF      -0.166500
      3 CAJ          2.7410    -0.0840    -0.1290 ca         1 TZF       0.146100
      4 OAA          4.0830    -0.1570    -0.1620 oh         1 TZF      -0.527100
      5 CAC          2.0550     1.1160     0.0480 ca         1 TZF      -0.166500
      6 CAE          0.6710     1.1320     0.0820 ca         1 TZF      -0.064000
      7 CAK         -0.0380    -0.0500    -0.0730 ca         1 TZF      -0.032200
      8 NAL         -1.4500    -0.0370    -0.0310 na         1 TZF       0.043500
      9 CAG         -2.2810    -0.9610     0.4710 cc         1 TZF       0.417400
     10 NAH         -3.5250    -0.5700     0.3280 nd         1 TZF      -0.697000
     11 CAF         -3.3970     0.6300    -0.2760 cd         1 TZF       0.518900
     12 NAI         -2.1590     0.9910    -0.5110 nc         1 TZF      -0.535800
     13 H1           0.0940    -2.1710    -0.4180 ha         1 TZF       0.133500
     14 H2           2.5460    -2.2020    -0.4340 ha         1 TZF       0.129000
     15 H3           4.4730     0.7150    -0.0310 ho         1 TZF       0.470000
     16 H4           2.6000     2.0450     0.1700 ha         1 TZF       0.129000
     17 H5           0.1500     2.0670     0.2350 ha         1 TZF       0.133500
     18 H6          -1.9430    -1.8740     0.9360 h5         1 TZF       0.066100
     19 H7          -4.2340     1.2520    -0.5510 h5         1 TZF       0.065100
@<TRIPOS>BOND
     1     1     2 ar  
     2     1     7 ar  
     3     1    13 1   
     4     2     3 ar  
     5     2    14 1   
     6     3     4 1   
     7     3     5 ar  
     8     4    15 1   
     9     5     6 ar  
    10     5    16 1   
    11     6     7 ar  
    12     6    17 1   
    13     7     8 1   
    14     8     9 1   
    15     8    12 1   
    16     9    10 2   
    17     9    18 1   
    18    10    11 1   
    19    11    12 2   
    20    11    19 1   
@<TRIPOS>SUBSTRUCTURE
     1 TZF         1 TEMP              0 ****  ****    0 ROOT
