@<TRIPOS>MOLECULE
TZG
   32    32     1     0     0
SMALL
No Charge or Current Charge


@<TRIPOS>ATOM
      1 N1           3.8510     1.3340    -0.0870 no         1 TZG       0.706200
      2 C4           1.0370    -1.2200     0.0530 ca         1 TZG      -0.111000
      3 C5           2.3240    -0.6650     0.0950 ca         1 TZG       0.148000
      4 C6           2.5030     0.7120    -0.1320 ca         1 TZG      -0.202200
      5 C7          -1.5220    -1.0410    -0.2530 c3         1 TZG      -0.040100
      6 C8          -1.6780    -2.5650     0.0290 c3         1 TZG       0.004500
      7 C10         -1.6120     2.5980     0.5470 c3         1 TZG      -0.205400
      8 C12         -3.1890    -2.8940     0.3760 c          1 TZG       0.694000
      9 O5          -3.4580    -3.2530     1.5140 o          1 TZG      -0.729000
     10 N2          -1.0730    -3.3890    -1.0840 n8         1 TZG      -1.007200
     11 C3          -0.1040    -0.4290    -0.2220 ca         1 TZG       0.016700
     12 O1           4.1220     2.1710    -0.9590 o          1 TZG      -0.425500
     13 O2           4.5340     1.1630     0.9310 o          1 TZG      -0.425500
     14 C1           1.3780     1.5140    -0.4120 ca         1 TZG      -0.065000
     15 C2           0.0810     0.9620    -0.4560 ca         1 TZG      -0.068300
     16 C9          -1.0820     1.9190    -0.7390 c3         1 TZG      -0.023100
     17 C11         -2.7620     3.5560     0.2010 c          1 TZG       0.724000
     18 O7          -2.4840     4.7090    -0.0900 o          1 TZG      -0.745000
     19 O6          -3.8990     3.1090     0.1800 o          1 TZG      -0.745000
     20 H4           0.9450    -2.2860     0.2320 ha         1 TZG       0.159000
     21 H7          -1.9860    -0.8390    -1.2250 hc         1 TZG       0.084200
     22 H7A         -2.1360    -0.5110     0.4850 hc         1 TZG       0.084200
     23 H8          -1.1120    -2.7900     0.9440 h1         1 TZG       0.039700
     24 H10         -1.9690     1.7890     1.1940 hc         1 TZG       0.026700
     25 H10A        -0.7630     3.1540     0.9640 hc         1 TZG       0.026700
     26 HN2         -1.1570    -4.3860    -0.8470 hn         1 TZG       0.382000
     27 HN2A        -1.6700    -3.3000    -1.9150 hn         1 TZG       0.382000
     28 H1           1.5080     2.5810    -0.5830 ha         1 TZG       0.137000
     29 H9          -1.9090     1.4150    -1.2530 hc         1 TZG       0.055700
     30 H9A         -0.7520     2.7000    -1.4360 hc         1 TZG       0.055700
     31 O4          -4.0120    -2.8740    -0.5310 o          1 TZG      -0.729000
     32 Cl1          3.6850    -1.7490     0.3890 cl         1 TZG      -0.205000
@<TRIPOS>BOND
     1     1     4 1   
     2     1    12 1   
     3     1    13 1   
     4     2     3 ar  
     5     2    11 ar  
     6     2    20 1   
     7     3     4 ar  
     8     3    32 1   
     9     4    14 ar  
    10     5     6 1   
    11     5    11 1   
    12     5    21 1   
    13     5    22 1   
    14     6     8 1   
    15     6    10 1   
    16     6    23 1   
    17     7    16 1   
    18     7    17 1   
    19     7    24 1   
    20     7    25 1   
    21     8     9 1   
    22     8    31 1   
    23    10    26 1   
    24    10    27 1   
    25    11    15 ar  
    26    14    15 ar  
    27    14    28 1   
    28    15    16 1   
    29    16    29 1   
    30    16    30 1   
    31    17    18 1   
    32    17    19 1   
@<TRIPOS>SUBSTRUCTURE
     1 TZG         1 TEMP              0 ****  ****    0 ROOT
