@<TRIPOS>MOLECULE
TZG
   32    32     1     0     0
SMALL
bcc


@<TRIPOS>ATOM
      1 N1           3.7610     1.3190     0.0130 no         1 TZG       0.326200
      2 C4           1.0070    -1.2090     0.0310 ca         1 TZG      -0.129000
      3 C5           2.2830    -0.6800     0.1370 ca         1 TZG       0.056400
      4 C6           2.4640     0.6800    -0.0840 ca         1 TZG      -0.202200
      5 C7          -1.4900    -0.9900    -0.2950 c3         1 TZG      -0.040100
      6 C8          -1.6430    -2.4840    -0.0390 c3         1 TZG       0.004500
      7 C10         -1.6510     2.4510     0.5390 c3         1 TZG      -0.205400
      8 C12         -3.1360    -2.8510     0.2050 c          1 TZG       0.904600
      9 O5          -3.7820    -2.0870     0.9510 o          1 TZG      -0.834300
     10 N2          -0.9850    -3.2470    -1.0880 n8         1 TZG      -0.896800
     11 C3          -0.0990    -0.4140    -0.2500 ca         1 TZG       0.016700
     12 O1           3.9920     2.2330    -0.7450 o          1 TZG      -0.235500
     13 O2           4.5310     0.9230     0.8540 o          1 TZG      -0.235500
     14 C1           1.3760     1.4780    -0.4060 ca         1 TZG      -0.083000
     15 C2           0.0930     0.9610    -0.4790 ca         1 TZG      -0.068300
     16 C9          -1.0470     1.9020    -0.7520 c3         1 TZG      -0.023100
     17 C11         -2.8230     3.4320     0.3470 c          1 TZG       0.934600
     18 O7          -3.1350     3.7430    -0.8190 o          1 TZG      -0.850300
     19 O6          -3.3610     3.8430     1.3950 o          1 TZG      -0.850300
     20 H4           0.8830    -2.2760     0.1450 ha         1 TZG       0.177000
     21 H7          -1.9350    -0.7490    -1.2670 hc         1 TZG       0.084200
     22 H7A         -2.1020    -0.4600     0.4370 hc         1 TZG       0.084200
     23 H8          -1.1330    -2.7190     0.9070 h1         1 TZG       0.039700
     24 H10         -1.9890     1.6290     1.1790 hc         1 TZG       0.026700
     25 H10A        -0.8700     2.9570     1.1170 hc         1 TZG       0.026700
     26 HN2         -1.2380    -4.2210    -0.9760 hn         1 TZG       0.326800
     27 HN2A        -1.3870    -2.9820    -1.9810 hn         1 TZG       0.326800
     28 H1           1.5270     2.5360    -0.5780 ha         1 TZG       0.155000
     29 H9          -1.8190     1.4100    -1.3460 hc         1 TZG       0.055700
     30 H9A         -0.6840     2.7340    -1.3580 hc         1 TZG       0.055700
     31 O4          -3.5550    -3.8970    -0.3250 o          1 TZG      -0.834300
     32 CL1          3.5830    -1.7700     0.4420 cl         1 TZG      -0.113400
@<TRIPOS>BOND
     1     1     4 1   
     2     1    12 1   
     3     1    13 1   
     4     2     3 ar  
     5     2    11 ar  
     6     2    20 1   
     7     3     4 ar  
     8     3    32 1   
     9     4    14 ar  
    10     5     6 1   
    11     5    11 1   
    12     5    21 1   
    13     5    22 1   
    14     6     8 1   
    15     6    10 1   
    16     6    23 1   
    17     7    16 1   
    18     7    17 1   
    19     7    24 1   
    20     7    25 1   
    21     8     9 1   
    22     8    31 1   
    23    10    26 1   
    24    10    27 1   
    25    11    15 ar  
    26    14    15 ar  
    27    14    28 1   
    28    15    16 1   
    29    16    29 1   
    30    16    30 1   
    31    17    18 1   
    32    17    19 1   
@<TRIPOS>SUBSTRUCTURE
     1 TZG         1 TEMP              0 ****  ****    0 ROOT
