@<TRIPOS>MOLECULE
TZI
   73    78     1     0     0
SMALL
abcg2


@<TRIPOS>ATOM
      1 N1          -1.7250    -1.6310    27.4530 n          1 TZI      -0.375800
      2 C4          -1.3660     2.4770    26.7120 ca         1 TZI      -0.205000
      3 C5          -1.4580     1.0880    26.8260 ca         1 TZI      -0.024300
      4 C6          -2.6810     0.4570    26.5990 ca         1 TZI      -0.121300
      5 C7          -0.2360     0.2980    27.2300 c6         1 TZI      -0.012100
      6 C8          -0.4240    -1.1840    27.0060 cx         1 TZI       0.050400
      7 C10         -2.0000    -2.4230    28.5200 c          1 TZI       0.619700
      8 C13          0.3110    -4.5220    30.6380 ca         1 TZI      -0.117500
      9 C15          0.7990    -2.2040    31.0730 ca         1 TZI      -0.117500
     10 C17          0.1180    -1.7730    25.7220 cx         1 TZI      -0.119900
     11 C20         -2.7860    -1.1260    24.1370 ca         1 TZI      -0.059500
     12 C21         -2.9210    -1.8090    22.9300 ca         1 TZI      -0.174000
     13 C22         -3.3140    -3.1460    22.9340 ca         1 TZI       0.141100
     14 C24         -3.4400    -3.0820    25.3420 ca         1 TZI      -0.059500
     15 C26         -4.6540    -2.5710    20.1560 c5         1 TZI      -0.103700
     16 C28         -6.2840    -3.4620    18.5880 c5         1 TZI       0.152800
     17 C1          -3.7920     1.2360    26.2680 ca         1 TZI      -0.064000
     18 C11         -0.8950    -2.7940    29.4610 ca         1 TZI      -0.131600
     19 C12         -0.6670    -4.1440    29.7260 ca         1 TZI      -0.076500
     20 C14          1.0460    -3.5510    31.3140 ca         1 TZI      -0.096000
     21 C16         -0.1630    -1.8250    30.1430 ca         1 TZI      -0.076500
     22 C18          0.7680    -2.0880    27.0380 cx         1 TZI      -0.119900
     23 C19         -3.0360    -1.7430    25.3540 ca         1 TZI      -0.134300
     24 C2          -3.7060     2.6120    26.1520 ca         1 TZI      -0.140000
     25 C23         -3.5780    -3.7770    24.1540 ca         1 TZI      -0.174000
     26 C25         -3.3840    -3.3240    20.5220 c3         1 TZI       0.166600
     27 C27         -5.9040    -3.4830    20.0680 c5         1 TZI      -0.071400
     28 C29         -4.5360    -1.9530    18.7510 c5         1 TZI       0.161800
     29 C3          -2.4780     3.2370    26.3750 ca         1 TZI       0.138100
     30 C31         -7.2310    -1.9340    16.0860 c3         1 TZI      -0.108400
     31 C32         -7.2160    -1.6590    14.6020 c3         1 TZI       0.179600
     32 C9          -2.8490    -1.0450    26.6950 c6         1 TZI       0.214300
     33 F1          -6.5740    -2.7220    13.9150 f          1 TZI      -0.284000
     34 N2          -5.8560    -2.1330    18.1450 n3         1 TZI      -0.718600
     35 O1          -3.1400    -2.8430    28.7500 o          1 TZI      -0.605100
     36 O2          -2.4280     4.5970    26.2490 oh         1 TZI      -0.537100
     37 O3          -3.4540    -3.9220    21.8230 os         1 TZI      -0.353100
     38 H1          -0.4150     2.9680    26.8890 ha         1 TZI       0.111000
     39 H2           0.6350     0.6470    26.6710 hc         1 TZI       0.057700
     40 H3          -0.0230     0.4890    28.2860 hc         1 TZI       0.057700
     41 H4           0.4970    -5.5720    30.8240 ha         1 TZI       0.116000
     42 H5           1.3580    -1.4450    31.6050 ha         1 TZI       0.116000
     43 H6           0.6050    -1.0940    25.0350 hc         1 TZI       0.082200
     44 H7          -0.4540    -2.5630    25.2590 hc         1 TZI       0.082200
     45 H8          -2.4700    -0.0920    24.1140 ha         1 TZI       0.125500
     46 H9          -2.7160    -1.2890    22.0060 ha         1 TZI       0.122000
     47 H10         -3.6390    -3.5850    26.2800 ha         1 TZI       0.125500
     48 H11         -4.8220    -1.7840    20.8910 hc         1 TZI       0.070700
     49 H12         -7.3500    -3.6120    18.4200 h1         1 TZI       0.038700
     50 H13         -5.7410    -4.2500    18.0360 h1         1 TZI       0.038700
     51 H14         -4.7440     0.7490    26.0920 ha         1 TZI       0.123000
     52 H15         -1.2470    -4.8950    29.2050 ha         1 TZI       0.122000
     53 H16          1.8040    -3.8450    32.0290 ha         1 TZI       0.114000
     54 H17         -0.3500    -0.7760    29.9590 ha         1 TZI       0.122000
     55 H18          0.6470    -3.0890    27.4210 hc         1 TZI       0.082200
     56 H19          1.7130    -1.6230    27.2870 hc         1 TZI       0.082200
     57 H20         -4.5720     3.2080    25.8950 ha         1 TZI       0.133000
     58 H21         -3.8900    -4.8130    24.1490 ha         1 TZI       0.122000
     59 H22         -3.2440    -4.1650    19.8430 h1         1 TZI       0.054700
     60 H23         -2.5020    -2.6820    20.4480 h1         1 TZI       0.054700
     61 H24         -6.7140    -3.0770    20.6740 hc         1 TZI       0.057700
     62 H25         -5.7000    -4.4930    20.4250 hc         1 TZI       0.057700
     63 H26         -3.7650    -2.4910    18.1710 h1         1 TZI       0.036200
     64 H27         -4.2580    -0.8990    18.7690 h1         1 TZI       0.036200
     65 H28         -5.2250    -2.7310    16.2210 h1         1 TZI       0.036200
     66 H29         -5.3490    -0.9910    16.4940 h1         1 TZI       0.036200
     67 H30         -7.8290    -1.1500    16.5610 hc         1 TZI       0.059200
     68 H31         -7.7470    -2.8810    16.2630 hc         1 TZI       0.059200
     69 H32         -6.6580    -0.7530    14.3580 h1         1 TZI       0.045700
     70 H33         -8.2250    -1.5890    14.1950 h1         1 TZI       0.045700
     71 H34         -3.7340    -1.2480    27.2940 h1         1 TZI       0.096700
     72 H36         -1.5310     4.9120    26.4300 ho         1 TZI       0.462000
     73 C30         -5.8360    -1.9480    16.7020 c3         1 TZI       0.170800
@<TRIPOS>BOND
     1     1     6 1   
     2     1     7 1   
     3     1    32 1   
     4     2     3 ar  
     5     2    29 ar  
     6     2    38 1   
     7     3     4 ar  
     8     3     5 1   
     9     4    17 ar  
    10     4    32 1   
    11     5     6 1   
    12     5    39 1   
    13     5    40 1   
    14     6    10 1   
    15     6    22 1   
    16     7    18 1   
    17     7    35 2   
    18     8    19 ar  
    19     8    20 ar  
    20     8    41 1   
    21     9    20 ar  
    22     9    21 ar  
    23     9    42 1   
    24    10    22 1   
    25    10    43 1   
    26    10    44 1   
    27    11    12 ar  
    28    11    23 ar  
    29    11    45 1   
    30    12    13 ar  
    31    12    46 1   
    32    13    25 ar  
    33    13    37 1   
    34    14    23 ar  
    35    14    25 ar  
    36    14    47 1   
    37    15    26 1   
    38    15    27 1   
    39    15    28 1   
    40    15    48 1   
    41    16    27 1   
    42    16    34 1   
    43    16    49 1   
    44    16    50 1   
    45    17    24 ar  
    46    17    51 1   
    47    18    19 ar  
    48    18    21 ar  
    49    19    52 1   
    50    20    53 1   
    51    21    54 1   
    52    22    55 1   
    53    22    56 1   
    54    23    32 1   
    55    24    29 ar  
    56    24    57 1   
    57    25    58 1   
    58    26    37 1   
    59    26    59 1   
    60    26    60 1   
    61    27    61 1   
    62    27    62 1   
    63    28    34 1   
    64    28    63 1   
    65    28    64 1   
    66    29    36 1   
    67    30    31 1   
    68    30    67 1   
    69    30    68 1   
    70    30    73 1   
    71    31    33 1   
    72    31    69 1   
    73    31    70 1   
    74    32    71 1   
    75    34    73 1   
    76    36    72 1   
    77    65    73 1   
    78    66    73 1   
@<TRIPOS>SUBSTRUCTURE
     1 TZI         1 TEMP              0 ****  ****    0 ROOT
