@<TRIPOS>MOLECULE
TZI
   73    78     1     0     0
SMALL
No Charge or Current Charge


@<TRIPOS>ATOM
      1 N1          -1.7800    -1.6390    27.3950 n          1 TZI      -0.375800
      2 C4          -1.8490     2.4410    26.1190 ca         1 TZI      -0.205000
      3 C5          -1.7990     1.0660    26.4220 ca         1 TZI      -0.024300
      4 C6          -2.9430     0.2590    26.2170 ca         1 TZI      -0.121300
      5 C7          -0.5100     0.4660    26.9860 c6         1 TZI      -0.012100
      6 C8          -0.4900    -1.0730    26.9630 cx         1 TZI       0.050400
      7 C10         -1.9800    -2.5150    28.4970 c          1 TZI       0.619700
      8 C13          0.3400    -4.1810    31.0400 ca         1 TZI      -0.117500
      9 C15          0.7830    -1.7920    31.0710 ca         1 TZI      -0.117500
     10 C17          0.2240    -1.7130    25.7850 cx         1 TZI      -0.119900
     11 C20         -2.4850    -1.6550    24.0170 ca         1 TZI      -0.059500
     12 C21         -2.5690    -2.4540    22.8640 ca         1 TZI      -0.174000
     13 C22         -3.1860    -3.7210    22.9240 ca         1 TZI       0.141100
     14 C24         -3.6160    -3.3800    25.3010 ca         1 TZI      -0.059500
     15 C26         -4.1950    -3.2210    19.9960 c5         1 TZI      -0.103700
     16 C28         -6.3610    -3.2240    18.8250 c5         1 TZI       0.152800
     17 C1          -4.1210     0.8420    25.7090 ca         1 TZI      -0.064000
     18 C11         -0.9030    -2.6950    29.5440 ca         1 TZI      -0.131600
     19 C12         -0.6420    -3.9860    30.0530 ca         1 TZI      -0.076500
     20 C14          1.0580    -3.0850    31.5450 ca         1 TZI      -0.096000
     21 C16         -0.1970    -1.5960    30.0830 ca         1 TZI      -0.076500
     22 C18          0.8490    -1.7710    27.1470 cx         1 TZI      -0.119900
     23 C19         -3.0070    -2.1110    25.2480 ca         1 TZI      -0.134300
     24 C2          -4.1610     2.2140    25.4070 ca         1 TZI      -0.140000
     25 C23         -3.7010    -4.1780    24.1470 ca         1 TZI      -0.174000
     26 C25         -3.0380    -4.1330    20.4750 c3         1 TZI       0.166600
     27 C27         -5.6140    -3.8720    20.0300 c5         1 TZI      -0.071400
     28 C29         -4.0920    -2.7940    18.5150 c5         1 TZI       0.161800
     29 C3          -3.0270     3.0110    25.6130 ca         1 TZI       0.138100
     30 C31         -7.0460    -0.8690    16.9150 c3         1 TZI      -0.108400
     31 C32         -7.2620    -0.1760    15.5570 c3         1 TZI       0.179600
     32 C9          -2.9260    -1.2510    26.5230 c6         1 TZI       0.214300
     33 F1          -7.3110    -1.0960    14.5620 f          1 TZI      -0.284000
     34 N2          -5.4210    -2.1770    18.3480 n3         1 TZI      -0.718600
     35 O1          -3.0470    -3.1040    28.6370 o          1 TZI      -0.605100
     36 O2          -3.0710     4.3400    25.3200 oh         1 TZI      -0.537100
     37 O3          -3.2960    -4.5580    21.8310 os         1 TZI      -0.353100
     38 H1          -0.9700     3.0590    26.2820 ha         1 TZI       0.111000
     39 H2           0.3530     0.8610    26.4320 hc         1 TZI       0.057700
     40 H3          -0.3840     0.8160    28.0170 hc         1 TZI       0.057700
     41 H4           0.5420    -5.1820    31.4140 ha         1 TZI       0.116000
     42 H5           1.3240    -0.9390    31.4750 ha         1 TZI       0.116000
     43 H6           0.6810    -1.0630    25.0420 hc         1 TZI       0.082200
     44 H7          -0.1750    -2.6420    25.3860 hc         1 TZI       0.082200
     45 H8          -2.0010    -0.6820    23.9500 ha         1 TZI       0.125500
     46 H9          -2.1450    -2.0750    21.9400 ha         1 TZI       0.122000
     47 H10         -4.0270    -3.7510    26.2370 ha         1 TZI       0.125500
     48 H11         -4.1840    -2.3230    20.6240 hc         1 TZI       0.070700
     49 H12         -7.3300    -2.8030    19.1240 h1         1 TZI       0.038700
     50 H13         -6.5460    -3.9740    18.0430 h1         1 TZI       0.038700
     51 H14         -5.0050     0.2300    25.5410 ha         1 TZI       0.123000
     52 H15         -1.1930    -4.8430    29.6700 ha         1 TZI       0.122000
     53 H16          1.8160    -3.2350    32.3100 ha         1 TZI       0.114000
     54 H17         -0.4210    -0.5860    29.7540 ha         1 TZI       0.122000
     55 H18          0.8870    -2.7510    27.6140 hc         1 TZI       0.082200
     56 H19          1.7230    -1.1530    27.3320 hc         1 TZI       0.082200
     57 H20         -5.0720     2.6570    25.0130 ha         1 TZI       0.133000
     58 H21         -4.1720    -5.1550    24.2000 ha         1 TZI       0.122000
     59 H22         -2.9950    -5.0110    19.8180 h1         1 TZI       0.054700
     60 H23         -2.0740    -3.6160    20.3890 h1         1 TZI       0.054700
     61 H24         -6.1220    -3.6740    20.9810 hc         1 TZI       0.057700
     62 H25         -5.5710    -4.9610    19.9120 hc         1 TZI       0.057700
     63 H26         -3.9510    -3.6550    17.8440 h1         1 TZI       0.036200
     64 H27         -3.2740    -2.0810    18.3460 h1         1 TZI       0.036200
     65 H28         -5.6780    -2.4130    16.2560 h1         1 TZI       0.036200
     66 H29         -4.9000    -0.9050    16.7470 h1         1 TZI       0.036200
     67 H30         -7.0900    -0.1100    17.7060 hc         1 TZI       0.059200
     68 H31         -7.8720    -1.5670    17.0920 hc         1 TZI       0.059200
     69 H32         -6.4440     0.5260    15.3510 h1         1 TZI       0.045700
     70 H33         -8.2090     0.3790    15.5650 h1         1 TZI       0.045700
     71 H34         -3.8550    -1.4350    27.0830 h1         1 TZI       0.096700
     72 H36         -2.1960     4.7300    25.5270 ho         1 TZI       0.462000
     73 C30         -5.6970    -1.6130    17.0090 c3         1 TZI       0.170800
@<TRIPOS>BOND
     1     1     6 1   
     2     1     7 1   
     3     1    32 1   
     4     2     3 ar  
     5     2    29 ar  
     6     2    38 1   
     7     3     4 ar  
     8     3     5 1   
     9     4    17 ar  
    10     4    32 1   
    11     5     6 1   
    12     5    39 1   
    13     5    40 1   
    14     6    10 1   
    15     6    22 1   
    16     7    18 1   
    17     7    35 2   
    18     8    19 ar  
    19     8    20 ar  
    20     8    41 1   
    21     9    20 ar  
    22     9    21 ar  
    23     9    42 1   
    24    10    22 1   
    25    10    43 1   
    26    10    44 1   
    27    11    12 ar  
    28    11    23 ar  
    29    11    45 1   
    30    12    13 ar  
    31    12    46 1   
    32    13    25 ar  
    33    13    37 1   
    34    14    23 ar  
    35    14    25 ar  
    36    14    47 1   
    37    15    26 1   
    38    15    27 1   
    39    15    28 1   
    40    15    48 1   
    41    16    27 1   
    42    16    34 1   
    43    16    49 1   
    44    16    50 1   
    45    17    24 ar  
    46    17    51 1   
    47    18    19 ar  
    48    18    21 ar  
    49    19    52 1   
    50    20    53 1   
    51    21    54 1   
    52    22    55 1   
    53    22    56 1   
    54    23    32 1   
    55    24    29 ar  
    56    24    57 1   
    57    25    58 1   
    58    26    37 1   
    59    26    59 1   
    60    26    60 1   
    61    27    61 1   
    62    27    62 1   
    63    28    34 1   
    64    28    63 1   
    65    28    64 1   
    66    29    36 1   
    67    30    31 1   
    68    30    67 1   
    69    30    68 1   
    70    30    73 1   
    71    31    33 1   
    72    31    69 1   
    73    31    70 1   
    74    32    71 1   
    75    34    73 1   
    76    36    72 1   
    77    65    73 1   
    78    66    73 1   
@<TRIPOS>SUBSTRUCTURE
     1 TZI         1 TEMP              0 ****  ****    0 ROOT
