@<TRIPOS>MOLECULE
TZJ
   25    27     1     0     0
SMALL
No Charge or Current Charge


@<TRIPOS>ATOM
      1 C11          2.4710     3.8350    18.7510 ca         1 TZJ      -0.097000
      2 O14          4.9370     8.4470    15.9290 o          1 TZJ      -0.529500
      3 C15          4.6790     8.4550    19.0670 cc         1 TZJ      -0.034000
      4 C16          5.7800     6.4220    19.1950 cd         1 TZJ       0.082000
      5 C17          4.8950     8.4130    20.4170 cd         1 TZJ      -0.034000
      6 C1           1.6110     6.4290    18.1160 ca         1 TZJ      -0.099000
      7 C2           2.7190     5.8790    17.4390 ca         1 TZJ       0.255000
      8 C3           0.9530     5.6990    19.0970 ca         1 TZJ      -0.066000
      9 N4           1.1050     7.7000    17.8930 nc         1 TZJ      -0.327500
     10 N5           3.3770     6.6360    16.4790 nu         1 TZJ      -0.846100
     11 C6           3.1410     4.5740    17.7580 ca         1 TZJ      -0.055000
     12 C7           1.3730     4.3990    19.4260 ca         1 TZJ      -0.059000
     13 N8          -0.1080     6.3360    19.7040 nc         1 TZJ      -0.298500
     14 S9          -0.1920     7.8550    18.9680 ss         1 TZJ       0.611000
     15 S10          4.9730     7.1310    16.5680 sy         1 TZJ       1.194600
     16 C12          5.1730     7.3290    18.3430 cc         1 TZJ      -0.321500
     17 O13          5.7520     6.0060    16.0470 o          1 TZJ      -0.529500
     18 S18          5.7480     6.9430    20.8920 ss         1 TZJ       0.287000
     19 Cl20         4.3980     9.6240    21.5550 cl         1 TZJ      -0.130000
     20 H24          2.8020     2.8280    18.9960 ha         1 TZJ       0.130000
     21 H25          4.1600     9.2750    18.5770 ha         1 TZJ       0.170000
     22 H21          2.9060     7.5100    16.2900 hn         1 TZJ       0.498000
     23 H22          3.9840     4.1350    17.2330 ha         1 TZJ       0.150000
     24 H23          0.8530     3.8320    20.1950 ha         1 TZJ       0.143000
     25 Cl19         6.5120     4.9030    18.7720 cl         1 TZJ      -0.094000
@<TRIPOS>BOND
     1     1    11 ar  
     2     1    12 ar  
     3     1    20 1   
     4     2    15 2   
     5     3     5 2   
     6     3    16 1   
     7     3    21 1   
     8     4    16 2   
     9     4    18 1   
    10     4    25 1   
    11     5    18 1   
    12     5    19 1   
    13     6     7 ar  
    14     6     8 ar  
    15     6     9 2   
    16     7    10 1   
    17     7    11 ar  
    18     8    12 ar  
    19     8    13 2   
    20     9    14 1   
    21    10    15 1   
    22    10    22 1   
    23    11    23 1   
    24    12    24 1   
    25    13    14 1   
    26    15    16 1   
    27    15    17 2   
@<TRIPOS>SUBSTRUCTURE
     1 TZJ         1 TEMP              0 ****  ****    0 ROOT
