@<TRIPOS>MOLECULE
TZJ
   25    27     1     0     0
SMALL
abcg2


@<TRIPOS>ATOM
      1 C11          2.1470     3.5020    17.9910 ca         1 TZJ      -0.097000
      2 O14          5.4740     7.9800    15.9840 o          1 TZJ      -0.529500
      3 C15          4.9310     8.9610    18.7560 cc         1 TZJ      -0.034000
      4 C16          5.0260     6.8120    19.6640 cd         1 TZJ       0.082000
      5 C17          4.8070     9.2320    20.0810 cd         1 TZJ      -0.034000
      6 C1           1.9370     6.2420    18.4330 ca         1 TZJ      -0.099000
      7 C2           2.7040     5.7770    17.3300 ca         1 TZJ       0.255000
      8 C3           1.2960     5.2980    19.3110 ca         1 TZJ      -0.066000
      9 N4           1.7550     7.5170    18.7970 nc         1 TZJ      -0.327500
     10 N5           3.4230     6.6990    16.5190 nu         1 TZJ      -0.846100
     11 C6           2.7850     4.4280    17.1220 ca         1 TZJ      -0.055000
     12 C7           1.4150     3.9070    19.0750 ca         1 TZJ      -0.059000
     13 N8           0.6480     5.8980    20.3240 nc         1 TZJ      -0.298500
     14 S9           0.8560     7.4900    20.1400 ss         1 TZJ       0.611000
     15 S10          5.0360     6.9310    16.8650 sy         1 TZJ       1.194600
     16 C12          5.0600     7.5590    18.5120 cc         1 TZJ      -0.321500
     17 O13          5.6750     5.6460    16.8400 o          1 TZJ      -0.529500
     18 S18          4.8380     7.8060    21.0630 ss         1 TZJ       0.287000
     19 CL20         4.6280    10.7750    20.8110 cl         1 TZJ      -0.130000
     20 H24          2.2560     2.4470    17.7820 ha         1 TZJ       0.130000
     21 H25          4.9240     9.7090    17.9790 ha         1 TZJ       0.170000
     22 H21          2.9660     7.6020    16.4170 hn         1 TZJ       0.498000
     23 H22          3.3700     4.0610    16.2910 ha         1 TZJ       0.150000
     24 H23          0.9410     3.1990    19.7410 ha         1 TZJ       0.143000
     25 CL19         5.1050     5.1180    19.8780 cl         1 TZJ      -0.094000
@<TRIPOS>BOND
     1     1    11 ar  
     2     1    12 ar  
     3     1    20 1   
     4     2    15 2   
     5     3     5 2   
     6     3    16 1   
     7     3    21 1   
     8     4    16 2   
     9     4    18 1   
    10     4    25 1   
    11     5    18 1   
    12     5    19 1   
    13     6     7 ar  
    14     6     8 ar  
    15     6     9 2   
    16     7    10 1   
    17     7    11 ar  
    18     8    12 ar  
    19     8    13 2   
    20     9    14 1   
    21    10    15 1   
    22    10    22 1   
    23    11    23 1   
    24    12    24 1   
    25    13    14 1   
    26    15    16 1   
    27    15    17 2   
@<TRIPOS>SUBSTRUCTURE
     1 TZJ         1 TEMP              0 ****  ****    0 ROOT
