@<TRIPOS>MOLECULE
TZK
   31    32     1     0     0
SMALL
abcg2


@<TRIPOS>ATOM
      1 C01        -19.8930   -20.9740     4.3660 c3         1 TZK      -0.058800
      2 C02        -18.9140   -20.9510     3.2320 ca         1 TZK      -0.018300
      3 C03        -18.9100   -19.8980     2.3180 ca         1 TZK      -0.134000
      4 C04        -18.0330   -19.8800     1.2470 ca         1 TZK      -0.013000
      5 C05        -17.1380   -20.9310     1.0840 ca         1 TZK      -0.313500
      6 C09        -18.0340   -20.9030    -2.1390 c6         1 TZK       0.163300
      7 C10        -18.2250   -21.4120    -3.5660 c6         1 TZK       0.156100
      8 C12        -18.2340   -23.4840    -2.4690 c6         1 TZK       0.156100
      9 C13        -17.1870   -23.0930    -1.4290 c6         1 TZK       0.163300
     10 C15        -17.1130   -21.9860     1.9880 ca         1 TZK      -0.013000
     11 C16        -18.0010   -21.9870     3.0520 ca         1 TZK      -0.134000
     12 N08        -16.9320   -21.6500    -1.5450 n3         1 TZK      -0.721500
     13 O07        -14.9540   -21.8330    -0.0420 o          1 TZK      -0.533000
     14 O11        -18.0080   -22.8040    -3.6770 os         1 TZK      -0.432000
     15 O14        -15.8160   -19.5720    -0.7190 o          1 TZK      -0.533000
     16 S06        -16.0710   -20.9480    -0.3270 sy         1 TZK       1.163600
     17 H1         -20.8510   -21.3790     4.0350 hc         1 TZK       0.050033
     18 H2         -19.5420   -21.5990     5.1870 hc         1 TZK       0.050033
     19 H3         -20.0810   -19.9730     4.7520 hc         1 TZK       0.050033
     20 H4         -19.6020   -19.0740     2.4480 ha         1 TZK       0.118000
     21 H5         -18.0490   -19.0470     0.5570 ha         1 TZK       0.134000
     22 H7         -18.9510   -21.0070    -1.5480 h1         1 TZK       0.060700
     23 H8         -17.5080   -20.9250    -4.2300 h1         1 TZK       0.051450
     24 H9         -19.2330   -21.1400    -3.9020 h1         1 TZK       0.051450
     25 H10        -19.2460   -23.3020    -2.0870 h1         1 TZK       0.051450
     26 H11        -18.1560   -24.5530    -2.6670 h1         1 TZK       0.051450
     27 H12        -17.5610   -23.3740    -0.4380 h1         1 TZK       0.060700
     28 H13        -16.2560   -23.6300    -1.6060 h1         1 TZK       0.060700
     29 H14        -16.4070   -22.7980     1.8780 ha         1 TZK       0.134000
     30 H15        -17.9750   -22.8090     3.7560 ha         1 TZK       0.118000
     31 H6         -17.7940   -19.8420    -2.1790 h1         1 TZK       0.060700
@<TRIPOS>BOND
     1     1     2 1   
     2     1    17 1   
     3     1    18 1   
     4     1    19 1   
     5     2     3 ar  
     6     2    11 ar  
     7     3     4 ar  
     8     3    20 1   
     9     4     5 ar  
    10     4    21 1   
    11     5    10 ar  
    12     5    16 1   
    13     6     7 1   
    14     6    12 1   
    15     6    22 1   
    16     6    31 1   
    17     7    14 1   
    18     7    23 1   
    19     7    24 1   
    20     8     9 1   
    21     8    14 1   
    22     8    25 1   
    23     8    26 1   
    24     9    12 1   
    25     9    27 1   
    26     9    28 1   
    27    10    11 ar  
    28    10    29 1   
    29    11    30 1   
    30    12    16 1   
    31    13    16 2   
    32    15    16 2   
@<TRIPOS>SUBSTRUCTURE
     1 TZK         1 TEMP              0 ****  ****    0 ROOT
