@<TRIPOS>MOLECULE
TZK
   31    32     1     0     0
SMALL
No Charge or Current Charge


@<TRIPOS>ATOM
      1 C01        -19.2960   -21.8960     4.8820 c3         1 TZK      -0.058800
      2 C02        -18.6490   -21.4630     3.5750 ca         1 TZK      -0.018300
      3 C03        -19.1740   -20.3790     2.8480 ca         1 TZK      -0.134000
      4 C04        -18.5810   -19.9780     1.6380 ca         1 TZK      -0.013000
      5 C05        -17.4530   -20.6660     1.1450 ca         1 TZK      -0.313500
      6 C09        -16.7620   -21.2230    -2.8950 c6         1 TZK       0.163300
      7 C10        -17.1770   -22.4090    -3.8250 c6         1 TZK       0.156100
      8 C12        -19.0630   -22.8950    -2.4100 c6         1 TZK       0.156100
      9 C13        -18.6530   -21.7870    -1.3870 c6         1 TZK       0.163300
     10 C15        -16.9290   -21.7560     1.8680 ca         1 TZK      -0.013000
     11 C16        -17.5270   -22.1500     3.0780 ca         1 TZK      -0.134000
     12 N08        -17.2110   -21.3990    -1.4810 n3         1 TZK      -0.721500
     13 O07        -15.2420   -20.3610    -0.2720 o          1 TZK      -0.533000
     14 O11        -17.9100   -23.4260    -3.1020 os         1 TZK      -0.432000
     15 O14        -17.2790   -18.9160    -0.8820 o          1 TZK      -0.533000
     16 S06        -16.6910   -20.1760    -0.4150 sy         1 TZK       1.163600
     17 H1         -20.0780   -22.6430     4.7010 hc         1 TZK       0.050033
     18 H2         -18.5610   -22.3370     5.5650 hc         1 TZK       0.050033
     19 H3         -19.7570   -21.0460     5.4000 hc         1 TZK       0.050033
     20 H4         -20.0440   -19.8440     3.2200 ha         1 TZK       0.118000
     21 H5         -19.0050   -19.1380     1.0900 ha         1 TZK       0.134000
     22 H7         -17.1800   -20.2950    -3.3140 h1         1 TZK       0.060700
     23 H8         -16.2800   -22.8660    -4.2660 h1         1 TZK       0.051450
     24 H9         -17.8000   -22.0320    -4.6490 h1         1 TZK       0.051450
     25 H10        -19.7630   -22.4770    -3.1480 h1         1 TZK       0.051450
     26 H11        -19.5770   -23.7140    -1.8870 h1         1 TZK       0.051450
     27 H12        -19.2980   -20.9110    -1.5510 h1         1 TZK       0.060700
     28 H13        -18.8860   -22.1630    -0.3810 h1         1 TZK       0.060700
     29 H14        -16.0640   -22.3020     1.4940 ha         1 TZK       0.134000
     30 H15        -17.1160   -22.9940     3.6270 ha         1 TZK       0.118000
     31 H6         -15.6680   -21.1190    -2.9370 h1         1 TZK       0.060700
@<TRIPOS>BOND
     1     1     2 1   
     2     1    17 1   
     3     1    18 1   
     4     1    19 1   
     5     2     3 ar  
     6     2    11 ar  
     7     3     4 ar  
     8     3    20 1   
     9     4     5 ar  
    10     4    21 1   
    11     5    10 ar  
    12     5    16 1   
    13     6     7 1   
    14     6    12 1   
    15     6    22 1   
    16     6    31 1   
    17     7    14 1   
    18     7    23 1   
    19     7    24 1   
    20     8     9 1   
    21     8    14 1   
    22     8    25 1   
    23     8    26 1   
    24     9    12 1   
    25     9    27 1   
    26     9    28 1   
    27    10    11 ar  
    28    10    29 1   
    29    11    30 1   
    30    12    16 1   
    31    13    16 2   
    32    15    16 2   
@<TRIPOS>SUBSTRUCTURE
     1 TZK         1 TEMP              0 ****  ****    0 ROOT
