@<TRIPOS>MOLECULE
TZL
   20    20     1     0     0
SMALL
abcg2


@<TRIPOS>ATOM
      1 S1           1.1530     0.0260    -1.4050 ss         1 TZL      -0.048400
      2 C2          -0.0810    -0.1110    -0.2020 cc         1 TZL       0.439700
      3 N3          -1.2810     0.0170    -0.6710 nd         1 TZL      -0.644000
      4 C4          -1.2730     0.2330    -2.0190 cd         1 TZL       0.276900
      5 C5          -0.0480     0.2720    -2.6020 cc         1 TZL      -0.269000
      6 C6           0.2530    -0.3460     1.2400 c3         1 TZL      -0.089000
      7 C7          -0.1870     0.8650     2.0760 c3         1 TZL      -0.070400
      8 C8           0.2040     0.7650     3.5440 c3         1 TZL      -0.089100
      9 C9          -0.3720    -1.6570     1.7180 c3         1 TZL      -0.082100
     10 H4          -2.2080     0.3590    -2.5460 h4         1 TZL       0.040100
     11 H5           0.1970     0.4260    -3.6410 h4         1 TZL       0.161000
     12 H6           1.3400    -0.4360     1.3280 hc         1 TZL       0.051700
     13 H71         -1.2700     0.9860     1.9840 hc         1 TZL       0.049700
     14 H72          0.2620     1.7640     1.6460 hc         1 TZL       0.049700
     15 H81         -0.0420     1.6880     4.0700 hc         1 TZL       0.033367
     16 H82         -0.3170    -0.0470     4.0520 hc         1 TZL       0.033367
     17 H83          1.2760     0.5950     3.6570 hc         1 TZL       0.033367
     18 H91         -1.4610    -1.6080     1.6770 hc         1 TZL       0.041367
     19 H92         -0.0480    -2.4940     1.0980 hc         1 TZL       0.041367
     20 H93         -0.0790    -1.8750     2.7440 hc         1 TZL       0.041367
@<TRIPOS>BOND
     1     1     2 1   
     2     1     5 1   
     3     2     3 2   
     4     2     6 1   
     5     3     4 1   
     6     4     5 2   
     7     4    10 1   
     8     5    11 1   
     9     6     7 1   
    10     6     9 1   
    11     6    12 1   
    12     7     8 1   
    13     7    13 1   
    14     7    14 1   
    15     8    15 1   
    16     8    16 1   
    17     8    17 1   
    18     9    18 1   
    19     9    19 1   
    20     9    20 1   
@<TRIPOS>SUBSTRUCTURE
     1 TZL         1 TEMP              0 ****  ****    0 ROOT
