@<TRIPOS>MOLECULE
TZL
   20    20     1     0     0
SMALL
No Charge or Current Charge


@<TRIPOS>ATOM
      1 S1           1.1970     0.0120    -1.3950 ss         1 TZL      -0.048400
      2 C2          -0.1000    -0.1050    -0.2320 cc         1 TZL       0.439700
      3 N3          -1.3310     0.0340    -0.7140 nd         1 TZL      -0.644000
      4 C4          -1.2800     0.2460    -2.0840 cd         1 TZL       0.276900
      5 C5          -0.0140     0.2650    -2.6180 cc         1 TZL      -0.269000
      6 C6           0.2020    -0.3480     1.2320 c3         1 TZL      -0.089000
      7 C7          -0.2270     0.8610     2.1110 c3         1 TZL      -0.070400
      8 C8           0.2550     0.7970     3.5760 c3         1 TZL      -0.089100
      9 C9          -0.3960    -1.6910     1.7200 c3         1 TZL      -0.082100
     10 H4          -2.2010     0.3800    -2.6390 h4         1 TZL       0.040100
     11 H5           0.2790     0.4120    -3.6490 h4         1 TZL       0.161000
     12 H6           1.2920    -0.4380     1.3270 hc         1 TZL       0.051700
     13 H71         -1.3200     0.9560     2.0970 hc         1 TZL       0.049700
     14 H72          0.1700     1.7800     1.6610 hc         1 TZL       0.049700
     15 H81         -0.0060     1.7240     4.1010 hc         1 TZL       0.033367
     16 H82         -0.2140    -0.0360     4.1120 hc         1 TZL       0.033367
     17 H83          1.3440     0.6740     3.6230 hc         1 TZL       0.033367
     18 H91         -1.4920    -1.6500     1.7360 hc         1 TZL       0.041367
     19 H92         -0.0950    -2.5090     1.0540 hc         1 TZL       0.041367
     20 H93         -0.0450    -1.9400     2.7290 hc         1 TZL       0.041367
@<TRIPOS>BOND
     1     1     2 1   
     2     1     5 1   
     3     2     3 2   
     4     2     6 1   
     5     3     4 1   
     6     4     5 2   
     7     4    10 1   
     8     5    11 1   
     9     6     7 1   
    10     6     9 1   
    11     6    12 1   
    12     7     8 1   
    13     7    13 1   
    14     7    14 1   
    15     8    15 1   
    16     8    16 1   
    17     8    17 1   
    18     9    18 1   
    19     9    19 1   
    20     9    20 1   
@<TRIPOS>SUBSTRUCTURE
     1 TZL         1 TEMP              0 ****  ****    0 ROOT
