@<TRIPOS>MOLECULE
TZM
   23    24     1     0     0
SMALL
No Charge or Current Charge


@<TRIPOS>ATOM
      1 CAG         -1.5320     0.9270     0.7360 ca         1 TZM      -0.163000
      2 CAK         -2.7800     0.7620     0.1160 ca         1 TZM       0.292000
      3 NAA         -3.7520     1.7130     0.2670 nv         1 TZM      -1.072000
      4 CAC         -3.0300    -0.3800    -0.6590 ca         1 TZM      -0.164000
      5 CAB         -2.0340    -1.3590    -0.8130 ca         1 TZM      -0.072000
      6 CAD         -0.7850    -1.1930    -0.1910 ca         1 TZM      -0.125000
      7 CAL         -0.5220    -0.0460     0.5850 ca         1 TZM      -0.071300
      8 CAH          0.8330     0.1420     1.2650 c3         1 TZM       0.137900
      9 NAM          1.9820    -0.0760     0.3670 na         1 TZM      -0.060700
     10 NAJ          2.7980    -1.1570     0.4930 nc         1 TZM      -0.529800
     11 CAE          3.6810    -0.9630    -0.4790 cd         1 TZM       0.513900
     12 NAI          3.4670     0.1950    -1.2110 nd         1 TZM      -0.699000
     13 CAF          2.3940     0.7360    -0.6600 cc         1 TZM       0.404400
     14 H1          -1.3430     1.8140     1.3350 ha         1 TZM       0.110000
     15 H2          -3.6240     2.4670     0.9400 hn         1 TZM       0.449000
     16 H3          -4.6990     1.5300    -0.0610 hn         1 TZM       0.449000
     17 H4          -3.9950    -0.5130    -1.1420 ha         1 TZM       0.114000
     18 H5          -2.2300    -2.2460    -1.4120 ha         1 TZM       0.114000
     19 H6          -0.0220    -1.9590    -0.3130 ha         1 TZM       0.118000
     20 H7           0.9060     1.1590     1.6720 h1         1 TZM       0.066700
     21 H8           0.9060    -0.5540     2.1100 h1         1 TZM       0.066700
     22 H9           4.5050    -1.6350    -0.6950 h5         1 TZM       0.063100
     23 H10          1.8930     1.6560    -0.9390 h5         1 TZM       0.059100
@<TRIPOS>BOND
     1     1     2 ar  
     2     1     7 ar  
     3     1    14 1   
     4     2     3 1   
     5     2     4 ar  
     6     3    15 1   
     7     3    16 1   
     8     4     5 ar  
     9     4    17 1   
    10     5     6 ar  
    11     5    18 1   
    12     6     7 ar  
    13     6    19 1   
    14     7     8 1   
    15     8     9 1   
    16     8    20 1   
    17     8    21 1   
    18     9    10 1   
    19     9    13 1   
    20    10    11 2   
    21    11    12 1   
    22    11    22 1   
    23    12    13 2   
    24    13    23 1   
@<TRIPOS>SUBSTRUCTURE
     1 TZM         1 TEMP              0 ****  ****    0 ROOT
