@<TRIPOS>MOLECULE
TZM
   23    24     1     0     0
SMALL
bcc


@<TRIPOS>ATOM
      1 CAG         -1.1650     0.7200     0.2550 ca         1 TZM      -0.181000
      2 CAK         -2.4120     0.6780    -0.3750 ca         1 TZM       0.153600
      3 NAA         -2.9920     1.8230    -0.8770 nv         1 TZM      -0.823200
      4 CAC         -3.0370    -0.5680    -0.5270 ca         1 TZM      -0.182000
      5 CAB         -2.4240    -1.7200    -0.0690 ca         1 TZM      -0.090000
      6 CAD         -1.1780    -1.6700     0.5470 ca         1 TZM      -0.143000
      7 CAL         -0.5520    -0.4410     0.7090 ca         1 TZM      -0.071300
      8 CAH          0.7950    -0.3600     1.3770 c3         1 TZM       0.108600
      9 NAM          1.8350     0.0420     0.4520 na         1 TZM      -0.031400
     10 NAJ          2.1930    -0.7360    -0.5710 nc         1 TZM      -0.529800
     11 CAE          3.1150    -0.0240    -1.1730 cd         1 TZM       0.513900
     12 NAI          3.3670     1.1690    -0.5950 nd         1 TZM      -0.699000
     13 CAF          2.5390     1.1760     0.4260 cc         1 TZM       0.404400
     14 H1          -0.6740     1.6790     0.3910 ha         1 TZM       0.128000
     15 H2          -2.6710     2.6890    -0.4740 hn         1 TZM       0.393800
     16 H3          -3.9950     1.8020    -0.9680 hn         1 TZM       0.393800
     17 H4          -4.0060    -0.6250    -1.0100 ha         1 TZM       0.132000
     18 H5          -2.9230    -2.6720    -0.1980 ha         1 TZM       0.132000
     19 H6          -0.7030    -2.5780     0.8970 ha         1 TZM       0.136000
     20 H7           0.7890     0.3740     2.1830 h1         1 TZM       0.066700
     21 H8           1.0720    -1.3210     1.8080 h1         1 TZM       0.066700
     22 H9           3.6260    -0.3770    -2.0560 h5         1 TZM       0.063100
     23 H10          2.4180     1.9590     1.1590 h5         1 TZM       0.059100
@<TRIPOS>BOND
     1     1     2 ar  
     2     1     7 ar  
     3     1    14 1   
     4     2     3 1   
     5     2     4 ar  
     6     3    15 1   
     7     3    16 1   
     8     4     5 ar  
     9     4    17 1   
    10     5     6 ar  
    11     5    18 1   
    12     6     7 ar  
    13     6    19 1   
    14     7     8 1   
    15     8     9 1   
    16     8    20 1   
    17     8    21 1   
    18     9    10 1   
    19     9    13 1   
    20    10    11 2   
    21    11    12 1   
    22    11    22 1   
    23    12    13 2   
    24    13    23 1   
@<TRIPOS>SUBSTRUCTURE
     1 TZM         1 TEMP              0 ****  ****    0 ROOT
