@<TRIPOS>MOLECULE
TZN
   53    56     1     0     0
SMALL
No Charge or Current Charge


@<TRIPOS>ATOM
      1 CAO         -6.0570    -1.0310     0.7290 c5         1 TZN      -0.106400
      2 CAQ         -7.5710    -1.0120     1.0780 c5         1 TZN      -0.115400
      3 CAR         -8.0170     0.2610     0.3320 c5         1 TZN       0.151600
      4 OAA         -7.3690     0.0990    -0.9410 os         1 TZN      -0.428000
      5 CAJ         -6.0090    -0.3580    -0.6920 c5         1 TZN       0.088300
      6 CAP         -4.9750     0.8340    -0.7180 c          1 TZN       0.586100
      7 OAB         -5.2580     2.0160    -0.8930 o          1 TZN      -0.583100
      8 NAE         -3.6470     0.4280    -0.4060 n          1 TZN      -0.414800
      9 CAL         -2.6010     1.4860    -0.2640 c6         1 TZN       0.071500
     10 CAN         -1.2770     1.0270     0.4030 c6         1 TZN       0.206800
     11 CAK         -3.0920    -0.8790    -0.8930 c6         1 TZN       0.071500
     12 CAM         -1.7570    -1.3180    -0.2280 c6         1 TZN       0.206800
     13 NAF         -0.7360    -0.2250    -0.2130 nh         1 TZN      -0.785300
     14 C2           0.6590    -0.5080    -0.2250 ca         1 TZN       0.443900
     15 N3           1.0310    -1.7520    -0.5760 nb         1 TZN      -0.350000
     16 N1           1.4980     0.4940     0.1070 nb         1 TZN      -0.295000
     17 C6           2.8220     0.2450     0.0980 ca         1 TZN       0.121000
     18 CAW          3.7310     1.2580     0.4390 ca         1 TZN      -0.206000
     19 CAY          5.1220     1.0140     0.4370 ca         1 TZN       0.169100
     20 OAC          6.0360     2.0000     0.7710 os         1 TZN      -0.318100
     21 CBA          5.6380     3.3320     1.1400 c3         1 TZN       0.142900
     22 CAZ          5.6090    -0.2680     0.0880 ca         1 TZN       0.087100
     23 OAD          6.9790    -0.4810     0.0970 os         1 TZN      -0.319100
     24 CBB          7.5690    -1.7490    -0.2410 c3         1 TZN       0.144900
     25 CAX          4.6960    -1.2910    -0.2570 ca         1 TZN      -0.130000
     26 C5           3.3050    -1.0330    -0.2540 ca         1 TZN      -0.223000
     27 C4           2.3390    -2.0030    -0.5870 ca         1 TZN       0.441900
     28 NAI          2.6470    -3.2730    -0.9580 nv         1 TZN      -1.077900
     29 HAS         -5.4830    -0.4590     1.4680 hc         1 TZN       0.055700
     30 HAT         -5.6500    -2.0480     0.7260 hc         1 TZN       0.055700
     31 HAV         -8.0880    -1.8980     0.6900 hc         1 TZN       0.056200
     32 HAU         -7.7600    -0.9600     2.1560 hc         1 TZN       0.056200
     33 HAX         -9.1050     0.3290     0.2010 h1         1 TZN       0.056200
     34 HAW         -7.6510     1.1770     0.8170 h1         1 TZN       0.056200
     35 HAJ         -5.7430    -1.0720    -1.4820 h1         1 TZN       0.072700
     36 HAN         -2.3670     1.8760    -1.2650 h1         1 TZN       0.062950
     37 HAM         -3.0040     2.3250     0.3210 h1         1 TZN       0.062950
     38 HAR         -0.5680     1.8630     0.3240 h1         1 TZN       0.068700
     39 HAQ         -1.4600     0.8630     1.4760 h1         1 TZN       0.068700
     40 HAL         -3.8080    -1.6950    -0.7410 h1         1 TZN       0.062950
     41 HAK         -2.9260    -0.7970    -1.9760 h1         1 TZN       0.062950
     42 HAO         -1.9680    -1.6400     0.8020 h1         1 TZN       0.068700
     43 HAP         -1.4020    -2.2040    -0.7730 h1         1 TZN       0.068700
     44 HAY          3.3360     2.2340     0.7050 ha         1 TZN       0.139000
     45 HBA          6.5210     3.9440     1.3630 h1         1 TZN       0.044700
     46 HBC          5.0880     3.8160     0.3220 h1         1 TZN       0.044700
     47 HBB          5.0020     3.3160     2.0340 h1         1 TZN       0.044700
     48 HBE          8.6620    -1.6900    -0.1670 h1         1 TZN       0.038367
     49 HBD          7.2250    -2.5340     0.4430 h1         1 TZN       0.038367
     50 HBF          7.3130    -2.0370    -1.2690 h1         1 TZN       0.038367
     51 HAZ          5.0590    -2.2790    -0.5210 ha         1 TZN       0.108000
     52 HBG          3.5930    -3.4660    -1.2700 hn         1 TZN       0.493000
     53 HAI          1.9100    -3.8330    -1.3780 hn         1 TZN       0.493000
@<TRIPOS>BOND
     1     1     2 1   
     2     1     5 1   
     3     1    29 1   
     4     1    30 1   
     5     2     3 1   
     6     2    31 1   
     7     2    32 1   
     8     3     4 1   
     9     3    33 1   
    10     3    34 1   
    11     4     5 1   
    12     5     6 1   
    13     5    35 1   
    14     6     7 2   
    15     6     8 1   
    16     8     9 1   
    17     8    11 1   
    18     9    10 1   
    19     9    36 1   
    20     9    37 1   
    21    10    13 1   
    22    10    38 1   
    23    10    39 1   
    24    11    12 1   
    25    11    40 1   
    26    11    41 1   
    27    12    13 1   
    28    12    42 1   
    29    12    43 1   
    30    13    14 1   
    31    14    15 ar  
    32    14    16 ar  
    33    15    27 ar  
    34    16    17 ar  
    35    17    18 ar  
    36    17    26 ar  
    37    18    19 ar  
    38    18    44 1   
    39    19    20 1   
    40    19    22 ar  
    41    20    21 1   
    42    21    45 1   
    43    21    46 1   
    44    21    47 1   
    45    22    23 1   
    46    22    25 ar  
    47    23    24 1   
    48    24    48 1   
    49    24    49 1   
    50    24    50 1   
    51    25    26 ar  
    52    25    51 1   
    53    26    27 ar  
    54    27    28 1   
    55    28    52 1   
    56    28    53 1   
@<TRIPOS>SUBSTRUCTURE
     1 TZN         1 TEMP              0 ****  ****    0 ROOT
