@<TRIPOS>MOLECULE
TZN
   53    56     1     0     0
SMALL
bcc


@<TRIPOS>ATOM
      1 CAO         -5.6660    -1.1320     0.5320 c5         1 TZN      -0.106400
      2 CAQ         -7.1480    -1.2300     0.8850 c5         1 TZN      -0.115400
      3 CAR         -7.6710     0.1030     0.3850 c5         1 TZN       0.128400
      4 OAA         -6.9580     0.3380    -0.8170 os         1 TZN      -0.381600
      5 CAJ         -5.6680    -0.2130    -0.7140 c5         1 TZN       0.065100
      6 CAP         -4.6410     0.9080    -0.5580 c          1 TZN       0.653100
      7 OAB         -5.0040     2.0210    -0.2090 o          1 TZN      -0.583100
      8 NAE         -3.3460     0.6040    -0.7940 n          1 TZN      -0.481800
      9 CAL         -2.2960     1.5750    -0.5390 c6         1 TZN       0.071500
     10 CAN         -1.3970     1.0950     0.5940 c6         1 TZN       0.206800
     11 CAK         -2.8200    -0.7140    -1.1020 c6         1 TZN       0.071500
     12 CAM         -1.9180    -1.2020     0.0260 c6         1 TZN       0.206800
     13 NAF         -0.8880    -0.2280     0.3060 nh         1 TZN      -0.785300
     14 C2           0.4430    -0.4810     0.1630 ca         1 TZN       0.969900
     15 N3           0.7720    -1.7380    -0.1860 nb         1 TZN      -0.876000
     16 N1           1.2870     0.5070     0.3850 nb         1 TZN      -0.821000
     17 C6           2.6000     0.2190     0.2520 ca         1 TZN       0.514600
     18 CAW          3.5450     1.2460     0.4810 ca         1 TZN      -0.289300
     19 CAY          4.8900     1.0060     0.3590 ca         1 TZN       0.169100
     20 OAC          5.8530     1.9140     0.5570 os         1 TZN      -0.294900
     21 CBA          5.4720     3.2240     0.9350 c3         1 TZN       0.119700
     22 CAZ          5.3600    -0.2930    -0.0050 ca         1 TZN       0.087100
     23 OAD          6.6990    -0.4080    -0.1000 os         1 TZN      -0.295900
     24 CBB          7.2260    -1.6600    -0.4840 c3         1 TZN       0.121700
     25 CAX          4.4550    -1.2960    -0.2240 ca         1 TZN      -0.148000
     26 C5           3.0680    -1.0550    -0.1030 ca         1 TZN      -0.353600
     27 C4           2.0480    -2.0370    -0.3200 ca         1 TZN       0.770200
     28 NAI          2.3510    -3.3020    -0.6460 nv         1 TZN      -0.967500
     29 HAS         -5.1060    -0.6840     1.3550 hc         1 TZN       0.055700
     30 HAT         -5.2170    -2.1020     0.3200 hc         1 TZN       0.055700
     31 HAV         -7.6200    -2.0540     0.3470 hc         1 TZN       0.056200
     32 HAU         -7.3180    -1.3790     1.9510 hc         1 TZN       0.056200
     33 HAX         -8.7380     0.0970     0.1570 h1         1 TZN       0.056200
     34 HAW         -7.4840     0.8970     1.1180 h1         1 TZN       0.056200
     35 HAJ         -5.4830    -0.7840    -1.6280 h1         1 TZN       0.072700
     36 HAN         -1.7020     1.7000    -1.4500 h1         1 TZN       0.062950
     37 HAM         -2.7360     2.5370    -0.2900 h1         1 TZN       0.062950
     38 HAR         -0.5690     1.7830     0.7290 h1         1 TZN       0.068700
     39 HAQ         -1.9730     1.0700     1.5260 h1         1 TZN       0.068700
     40 HAL         -3.6140    -1.4370    -1.2670 h1         1 TZN       0.062950
     41 HAK         -2.2430    -0.6550    -2.0300 h1         1 TZN       0.062950
     42 HAO         -2.5240    -1.3600     0.9260 h1         1 TZN       0.068700
     43 HAP         -1.4670    -2.1510    -0.2450 h1         1 TZN       0.068700
     44 HAY          3.1660     2.2210     0.7550 ha         1 TZN       0.157000
     45 HBA          6.3910     3.7930     1.0440 h1         1 TZN       0.044700
     46 HBC          4.8460     3.6980     0.1750 h1         1 TZN       0.044700
     47 HBB          4.9360     3.2280     1.8870 h1         1 TZN       0.044700
     48 HBE          8.3060    -1.5410    -0.5300 h1         1 TZN       0.038367
     49 HBD          6.9900    -2.4430     0.2410 h1         1 TZN       0.038367
     50 HBF          6.8630    -1.9710    -1.4680 h1         1 TZN       0.038367
     51 HAZ          4.8090    -2.2810    -0.4930 ha         1 TZN       0.126000
     52 HBG          3.2780    -3.5800    -0.9120 hn         1 TZN       0.437800
     53 HAI          1.6030    -3.9280    -0.8940 hn         1 TZN       0.437800
@<TRIPOS>BOND
     1     1     2 1   
     2     1     5 1   
     3     1    29 1   
     4     1    30 1   
     5     2     3 1   
     6     2    31 1   
     7     2    32 1   
     8     3     4 1   
     9     3    33 1   
    10     3    34 1   
    11     4     5 1   
    12     5     6 1   
    13     5    35 1   
    14     6     7 2   
    15     6     8 1   
    16     8     9 1   
    17     8    11 1   
    18     9    10 1   
    19     9    36 1   
    20     9    37 1   
    21    10    13 1   
    22    10    38 1   
    23    10    39 1   
    24    11    12 1   
    25    11    40 1   
    26    11    41 1   
    27    12    13 1   
    28    12    42 1   
    29    12    43 1   
    30    13    14 1   
    31    14    15 ar  
    32    14    16 ar  
    33    15    27 ar  
    34    16    17 ar  
    35    17    18 ar  
    36    17    26 ar  
    37    18    19 ar  
    38    18    44 1   
    39    19    20 1   
    40    19    22 ar  
    41    20    21 1   
    42    21    45 1   
    43    21    46 1   
    44    21    47 1   
    45    22    23 1   
    46    22    25 ar  
    47    23    24 1   
    48    24    48 1   
    49    24    49 1   
    50    24    50 1   
    51    25    26 ar  
    52    25    51 1   
    53    26    27 ar  
    54    27    28 1   
    55    28    52 1   
    56    28    53 1   
@<TRIPOS>SUBSTRUCTURE
     1 TZN         1 TEMP              0 ****  ****    0 ROOT
