@<TRIPOS>MOLECULE
TZQ
   25    26     1     0     0
SMALL
bcc


@<TRIPOS>ATOM
      1 OAA         -7.3220    -8.5050     4.8310 o          1 TZQ      -0.798300
      2 CAB         -8.1130    -7.6820     5.3260 c          1 TZQ       0.840100
      3 OAC         -8.3370    -7.4410     6.5240 o          1 TZQ      -0.798300
      4 CAD         -8.8950    -6.8800     4.3190 cc         1 TZQ       0.244200
      5 OAH         -9.7680    -5.9470     4.7610 os         1 TZQ      -0.284800
      6 CAE         -8.9100    -6.8990     2.9590 cd         1 TZQ      -0.310300
      7 CAF         -9.8570    -5.9180     2.5500 cd         1 TZQ      -0.249300
      8 CAG        -10.3460    -5.3710     3.6910 cc         1 TZQ       0.146000
      9 CAI        -11.3280    -4.2930     3.9320 c3         1 TZQ       0.128100
     10 OAJ        -12.4750    -4.8630     4.5520 os         1 TZQ      -0.295900
     11 CAK        -13.4820    -4.0480     4.9150 ca         1 TZQ       0.163100
     12 CAP        -13.5030    -2.6770     4.6730 ca         1 TZQ      -0.201000
     13 CAO        -14.5970    -1.9280     5.0860 ca         1 TZQ       0.018400
     14 CLAQ       -14.6400    -0.2300     4.7970 cl         1 TZQ      -0.101400
     15 CAN        -15.6590    -2.5320     5.7280 ca         1 TZQ       0.082900
     16 FAR        -16.7060    -1.7930     6.1120 f          1 TZQ      -0.140900
     17 CAM        -15.6430    -3.8920     5.9730 ca         1 TZQ      -0.128000
     18 CAL        -14.5590    -4.6480     5.5710 ca         1 TZQ      -0.140000
     19 H2          -8.3180    -7.5370     2.3230 ha         1 TZQ       0.157000
     20 H3         -10.1380    -5.6490     1.5440 ha         1 TZQ       0.129000
     21 H4         -10.9010    -3.5140     4.5750 h1         1 TZQ       0.039700
     22 H5         -11.5880    -3.8320     2.9740 h1         1 TZQ       0.039700
     23 H6         -12.6930    -2.1700     4.1670 ha         1 TZQ       0.154000
     24 H7         -16.4790    -4.3570     6.4790 ha         1 TZQ       0.147000
     25 H8         -14.5430    -5.7130     5.7610 ha         1 TZQ       0.160000
@<TRIPOS>BOND
     1     1     2 1   
     2     2     3 1   
     3     2     4 1   
     4     4     5 1   
     5     4     6 2   
     6     5     8 1   
     7     6     7 1   
     8     6    19 1   
     9     7     8 2   
    10     7    20 1   
    11     8     9 1   
    12     9    10 1   
    13     9    21 1   
    14     9    22 1   
    15    10    11 1   
    16    11    12 ar  
    17    11    18 ar  
    18    12    13 ar  
    19    12    23 1   
    20    13    14 1   
    21    13    15 ar  
    22    15    16 1   
    23    15    17 ar  
    24    17    18 ar  
    25    17    24 1   
    26    18    25 1   
@<TRIPOS>SUBSTRUCTURE
     1 TZQ         1 TEMP              0 ****  ****    0 ROOT
