@<TRIPOS>MOLECULE
TZQ
   25    26     1     0     0
SMALL
No Charge or Current Charge


@<TRIPOS>ATOM
      1 OAA         -6.9690    -8.4810     4.4890 o          1 TZQ      -0.693000
      2 CAB         -7.5290    -7.5340     5.0280 c          1 TZQ       0.629500
      3 OAC         -7.1950    -7.1270     6.1350 o          1 TZQ      -0.693000
      4 CAD         -8.6590    -6.8510     4.3120 cc         1 TZQ       0.134500
      5 OAH         -9.3560    -5.7750     4.8310 os         1 TZQ      -0.196000
      6 CAE         -9.1650    -7.1670     3.0730 cd         1 TZQ      -0.227000
      7 CAF        -10.2130    -6.2610     2.8110 cd         1 TZQ      -0.166000
      8 CAG        -10.3060    -5.4290     3.8950 cc         1 TZQ       0.036300
      9 CAI        -11.2340    -4.2750     4.1740 c3         1 TZQ       0.151300
     10 OAJ        -12.5090    -4.8060     4.5750 os         1 TZQ      -0.319100
     11 CAK        -13.5770    -3.9930     4.8960 ca         1 TZQ       0.163100
     12 CAP        -13.4980    -2.5830     4.8550 ca         1 TZQ      -0.183000
     13 CAO        -14.6210    -1.8080     5.1930 ca         1 TZQ       0.110000
     14 ClAQ       -14.5010    -0.0500     5.1350 cl         1 TZQ      -0.193000
     15 CAN        -15.8240    -2.4350     5.5730 ca         1 TZQ       0.118000
     16 FAR        -16.9100    -1.6970     5.9000 f          1 TZQ      -0.176000
     17 CAM        -15.9050    -3.8360     5.6140 ca         1 TZQ      -0.110000
     18 CAL        -14.7810    -4.6120     5.2760 ca         1 TZQ      -0.122000
     19 H2          -8.8180    -7.9660     2.4260 ha         1 TZQ       0.139000
     20 H3         -10.8330    -6.2240     1.9210 ha         1 TZQ       0.111000
     21 H4         -10.8060    -3.6490     4.9670 h1         1 TZQ       0.039700
     22 H5         -11.3340    -3.6680     3.2650 h1         1 TZQ       0.039700
     23 H6         -12.5830    -2.0760     4.5660 ha         1 TZQ       0.136000
     24 H7         -16.8350    -4.3180     5.9080 ha         1 TZQ       0.129000
     25 H8         -14.8400    -5.6970     5.3070 ha         1 TZQ       0.142000
@<TRIPOS>BOND
     1     1     2 1   
     2     2     3 1   
     3     2     4 1   
     4     4     5 1   
     5     4     6 2   
     6     5     8 1   
     7     6     7 1   
     8     6    19 1   
     9     7     8 2   
    10     7    20 1   
    11     8     9 1   
    12     9    10 1   
    13     9    21 1   
    14     9    22 1   
    15    10    11 1   
    16    11    12 ar  
    17    11    18 ar  
    18    12    13 ar  
    19    12    23 1   
    20    13    14 1   
    21    13    15 ar  
    22    15    16 1   
    23    15    17 ar  
    24    17    18 ar  
    25    17    24 1   
    26    18    25 1   
@<TRIPOS>SUBSTRUCTURE
     1 TZQ         1 TEMP              0 ****  ****    0 ROOT
