@<TRIPOS>MOLECULE
TZR
   33    34     1     0     0
SMALL
abcg2


@<TRIPOS>ATOM
      1 C4           2.7800    -2.4110   -51.3600 ca         1 TZR      -0.104500
      2 C5           1.8560    -2.2840   -50.3280 ca         1 TZR      -0.113000
      3 C6           0.7050    -3.0660   -50.3230 ca         1 TZR      -0.109000
      4 C7           0.4880    -3.9680   -51.3590 ca         1 TZR      -0.113000
      5 C8           1.4150    -4.0920   -52.3890 ca         1 TZR      -0.104500
      6 N            3.0300    -5.2350   -54.9130 n          1 TZR      -0.423800
      7 O            5.9170    -3.7890   -51.4660 oh         1 TZR      -0.671000
      8 C1           4.6040    -4.6380   -53.2700 c5         1 TZR      -0.078700
      9 C11          1.5130    -5.2610   -56.8160 c3         1 TZR      -0.171100
     10 C12          3.8520    -5.8310   -53.8600 c5         1 TZR       0.103000
     11 C2           3.6290    -3.4440   -53.4850 c5         1 TZR      -0.021400
     12 C3           2.5780    -3.3160   -52.4040 ca         1 TZR      -0.082300
     13 C9           3.0620    -3.7660   -54.8730 c5         1 TZR       0.107000
     14 O1           2.3260    -7.2270   -55.6950 o          1 TZR      -0.616100
     15 H1           3.6760    -1.8030   -51.3560 ha         1 TZR       0.118500
     16 H2           2.0340    -1.5730   -49.5310 ha         1 TZR       0.113500
     17 H3          -0.0180    -2.9700   -49.5220 ha         1 TZR       0.113000
     18 H4          -0.4070    -4.5780   -51.3700 ha         1 TZR       0.113500
     19 H5           1.2210    -4.7970   -53.1860 ha         1 TZR       0.118500
     20 H6           4.2240    -4.9700   -51.1790 h1         1 TZR       0.031200
     21 H7           5.6400    -5.8220   -51.8180 h1         1 TZR       0.031200
     22 H8           6.1200    -3.8830   -50.5280 ho         1 TZR       0.444000
     23 H9           5.4830    -4.4450   -53.8920 hc         1 TZR       0.069700
     24 H10          1.0990    -5.9880   -57.5100 hc         1 TZR       0.060367
     25 H11          0.6950    -4.7080   -56.3480 hc         1 TZR       0.060367
     26 H12          2.1260    -4.5410   -57.3610 hc         1 TZR       0.060367
     27 H13          3.2150    -6.3190   -53.1140 h1         1 TZR       0.058700
     28 H14          4.5220    -6.5850   -54.2710 h1         1 TZR       0.058700
     29 H15          4.1920    -2.5130   -53.5220 hc         1 TZR       0.076700
     30 H16          3.7220    -3.3780   -55.6530 h1         1 TZR       0.050700
     31 H17          2.0690    -3.3480   -55.0240 h1         1 TZR       0.050700
     32 C10          2.3210    -5.9910   -55.7690 c          1 TZR       0.598100
     33 C            5.0790    -4.8810   -51.8560 c3         1 TZR       0.170600
@<TRIPOS>BOND
     1     1     2 ar  
     2     1    12 ar  
     3     1    15 1   
     4     2     3 ar  
     5     2    16 1   
     6     3     4 ar  
     7     3    17 1   
     8     4     5 ar  
     9     4    18 1   
    10     5    12 ar  
    11     5    19 1   
    12     6    10 1   
    13     6    13 1   
    14     6    32 1   
    15     7    22 1   
    16     7    33 1   
    17     8    10 1   
    18     8    11 1   
    19     8    23 1   
    20     8    33 1   
    21     9    24 1   
    22     9    25 1   
    23     9    26 1   
    24     9    32 1   
    25    10    27 1   
    26    10    28 1   
    27    11    12 1   
    28    11    13 1   
    29    11    29 1   
    30    13    30 1   
    31    13    31 1   
    32    14    32 2   
    33    20    33 1   
    34    21    33 1   
@<TRIPOS>SUBSTRUCTURE
     1 TZR         1 TEMP              0 ****  ****    0 ROOT
