@<TRIPOS>MOLECULE
TZR
   33    34     1     0     0
SMALL
No Charge or Current Charge


@<TRIPOS>ATOM
      1 C4           2.8060    -2.4840   -51.2870 ca         1 TZR      -0.104500
      2 C5           1.8830    -2.3620   -50.2350 ca         1 TZR      -0.113000
      3 C6           0.6840    -3.0880   -50.2650 ca         1 TZR      -0.109000
      4 C7           0.4120    -3.9340   -51.3500 ca         1 TZR      -0.113000
      5 C8           1.3370    -4.0570   -52.4020 ca         1 TZR      -0.104500
      6 N            3.0110    -5.2450   -54.8980 n          1 TZR      -0.423800
      7 O            6.0380    -3.6900   -51.5280 oh         1 TZR      -0.671000
      8 C1           4.5840    -4.6250   -53.2630 c5         1 TZR      -0.078700
      9 C11          1.5950    -5.3310   -56.9870 c3         1 TZR      -0.171100
     10 C12          3.7380    -5.8310   -53.7510 c5         1 TZR       0.103000
     11 C2           3.6280    -3.4080   -53.5040 c5         1 TZR      -0.021400
     12 C3           2.5580    -3.3360   -52.3850 ca         1 TZR      -0.082300
     13 C9           2.9790    -3.7610   -54.8780 c5         1 TZR       0.107000
     14 O1           2.2960    -7.2530   -55.7360 o          1 TZR      -0.616100
     15 H1           3.7310    -1.9130   -51.2450 ha         1 TZR       0.118500
     16 H2           2.0980    -1.7020   -49.3970 ha         1 TZR       0.113500
     17 H3          -0.0330    -2.9940   -49.4520 ha         1 TZR       0.113000
     18 H4          -0.5180    -4.4970   -51.3780 ha         1 TZR       0.113500
     19 H5           1.0850    -4.7210   -53.2230 ha         1 TZR       0.118500
     20 H6           4.3640    -4.8740   -51.1090 h1         1 TZR       0.031200
     21 H7           5.7450    -5.7330   -51.8100 h1         1 TZR       0.031200
     22 H8           6.3870    -3.8510   -50.6230 ho         1 TZR       0.444000
     23 H9           5.4490    -4.5270   -53.9310 hc         1 TZR       0.069700
     24 H10          1.1500    -6.0380   -57.6960 hc         1 TZR       0.060367
     25 H11          0.8380    -4.6550   -56.5780 hc         1 TZR       0.060367
     26 H12          2.2890    -4.6430   -57.4820 hc         1 TZR       0.060367
     27 H13          3.0380    -6.1810   -52.9800 h1         1 TZR       0.058700
     28 H14          4.3710    -6.6770   -54.0500 h1         1 TZR       0.058700
     29 H15          4.1860    -2.4670   -53.5730 hc         1 TZR       0.076700
     30 H16          3.5840    -3.3640   -55.7050 h1         1 TZR       0.050700
     31 H17          1.9650    -3.3520   -54.9760 h1         1 TZR       0.050700
     32 C10          2.3130    -6.0330   -55.8320 c          1 TZR       0.598100
     33 C            5.1770    -4.7930   -51.8430 c3         1 TZR       0.170600
@<TRIPOS>BOND
     1     1     2 ar  
     2     1    12 ar  
     3     1    15 1   
     4     2     3 ar  
     5     2    16 1   
     6     3     4 ar  
     7     3    17 1   
     8     4     5 ar  
     9     4    18 1   
    10     5    12 ar  
    11     5    19 1   
    12     6    10 1   
    13     6    13 1   
    14     6    32 1   
    15     7    22 1   
    16     7    33 1   
    17     8    10 1   
    18     8    11 1   
    19     8    23 1   
    20     8    33 1   
    21     9    24 1   
    22     9    25 1   
    23     9    26 1   
    24     9    32 1   
    25    10    27 1   
    26    10    28 1   
    27    11    12 1   
    28    11    13 1   
    29    11    29 1   
    30    13    30 1   
    31    13    31 1   
    32    14    32 2   
    33    20    33 1   
    34    21    33 1   
@<TRIPOS>SUBSTRUCTURE
     1 TZR         1 TEMP              0 ****  ****    0 ROOT
