@<TRIPOS>MOLECULE
TZT
  117   118     1     0     0
SMALL
No Charge or Current Charge


@<TRIPOS>ATOM
      1 C6           8.0370    -1.1140    -1.2540 c3         1 TZT      -0.091100
      2 C5           8.9190    -0.6030    -0.0810 c3         1 TZT      -0.078700
      3 C7          10.1600     0.1160    -0.6670 c3         1 TZT      -0.091100
      4 C4           8.0620     0.3050     0.9190 c3         1 TZT       0.137500
      5 N2           8.8170     0.9420     2.0630 n3         1 TZT      -0.763600
      6 C3           9.5930     0.0060     2.9110 c3         1 TZT       0.174600
      7 C1           9.5200     2.2130     1.7610 c3         1 TZT       0.174600
      8 C8           6.7530    -0.4890     1.3800 c          1 TZT       0.614100
      9 O9           6.7300    -1.5900     1.9460 o          1 TZT      -0.617100
     10 N10          5.5820     0.1670     1.0600 ns         1 TZT      -0.491900
     11 C11          4.2140    -0.3460     1.2960 c3         1 TZT       0.039700
     12 C12          3.5550     0.3830     2.5110 c3         1 TZT      -0.068700
     13 C14          2.0820    -0.0260     2.7380 c3         1 TZT      -0.090100
     14 C13          4.3680     0.2050     3.8180 c3         1 TZT      -0.090100
     15 C15          3.4030    -0.1770    -0.0350 c          1 TZT       0.583100
     16 O16          3.4840     0.8790    -0.6560 o          1 TZT      -0.631100
     17 N17          2.5760    -1.2360    -0.5140 n          1 TZT      -0.389800
     18 C78          2.6040    -2.5790     0.1210 c3         1 TZT       0.084300
     19 C18          1.8210    -1.0940    -1.8080 c3         1 TZT       0.088700
     20 C19          2.4430    -1.9450    -2.9760 c3         1 TZT      -0.066700
     21 C22          3.9930    -1.8030    -3.0290 c3         1 TZT      -0.090100
     22 C20          1.8150    -1.5940    -4.3630 c3         1 TZT      -0.078400
     23 C21          2.2600    -2.5010    -5.5320 c3         1 TZT      -0.088100
     24 C23          0.2590    -1.2000    -1.6260 c3         1 TZT       0.175300
     25 O24         -0.1430    -2.5450    -1.2760 os         1 TZT      -0.465000
     26 C25         -0.6510    -3.3610    -2.3490 c3         1 TZT       0.144900
     27 C26         -0.2630    -0.2950    -0.4920 c3         1 TZT      -0.166400
     28 C27         -1.7380     0.1190    -0.5940 c          1 TZT       0.609100
     29 O28         -2.4750    -0.3330    -1.4610 o          1 TZT      -0.614100
     30 N29         -2.2080     1.1040     0.3000 n          1 TZT      -0.412800
     31 C30         -1.5850     1.3440     1.6230 c5         1 TZT       0.106000
     32 C31         -2.8240     1.6470     2.4930 c5         1 TZT      -0.094400
     33 C32         -3.6670     2.5020     1.5230 c5         1 TZT      -0.086400
     34 C33         -3.5780     1.6840     0.1950 c5         1 TZT       0.118700
     35 C34         -3.8000     2.5350    -1.1110 c3         1 TZT       0.163300
     36 O35         -2.7930     3.5770    -1.1520 os         1 TZT      -0.457000
     37 C36         -2.5540     4.1880    -2.4350 c3         1 TZT       0.144900
     38 C37         -5.2210     3.1520    -1.3370 c3         1 TZT      -0.172700
     39 C38         -5.5380     4.4490    -0.5310 c3         1 TZT      -0.087100
     40 C39         -6.2820     2.0490    -1.1830 c          1 TZT       0.600100
     41 O40         -6.6270     1.3470    -2.1210 o          1 TZT      -0.596100
     42 N41         -6.9010     1.9710     0.0460 ns         1 TZT      -0.511900
     43 C42         -7.8870     0.9550     0.4210 c3         1 TZT       0.104000
     44 C43         -7.2260    -0.4010     0.7380 c3         1 TZT      -0.049100
     45 C44         -8.2470    -1.4480     1.1570 ca         1 TZT      -0.082300
     46 C45         -8.9450    -2.1860     0.1810 ca         1 TZT      -0.103500
     47 C46         -9.8940    -3.1500     0.5650 ca         1 TZT      -0.108000
     48 C47        -10.1490    -3.3820     1.9270 ca         1 TZT      -0.108000
     49 C48         -9.4570    -2.6480     2.9050 ca         1 TZT      -0.108000
     50 C49         -8.5090    -1.6830     2.5210 ca         1 TZT      -0.103500
     51 H6           8.6320    -1.7050    -1.9610 hc         1 TZT       0.036367
     52 H6A          7.2260    -1.7610    -0.8990 hc         1 TZT       0.036367
     53 H6B          7.5920    -0.2760    -1.8040 hc         1 TZT       0.036367
     54 H5           9.3090    -1.5190     0.4140 hc         1 TZT       0.069700
     55 H7          10.9310     0.2550     0.0980 hc         1 TZT       0.036367
     56 H7A         10.6160    -0.4800    -1.4670 hc         1 TZT       0.036367
     57 H7B          9.8900     1.0940    -1.0840 hc         1 TZT       0.036367
     58 H4           7.6770     1.1260     0.3000 h1         1 TZT       0.052700
     59 H3          10.4650    -0.3860     2.3700 h1         1 TZT       0.031700
     60 H3A          9.9550     0.5150     3.8140 h1         1 TZT       0.031700
     61 H3B          8.9760    -0.8430     3.2300 h1         1 TZT       0.031700
     62 H1           8.8800     2.8840     1.1720 h1         1 TZT       0.031700
     63 H1A          9.7790     2.7340     2.6920 h1         1 TZT       0.031700
     64 H1B         10.4510     2.0490     1.2070 h1         1 TZT       0.031700
     65 HN10         5.6840     1.0570     0.5880 hn         1 TZT       0.324500
     66 H11          4.2840    -1.4100     1.5410 h1         1 TZT       0.093700
     67 H12          3.5510     1.4570     2.2810 hc         1 TZT       0.063700
     68 H14          1.9970    -1.1000     2.9390 hc         1 TZT       0.037867
     69 H14A         1.6580     0.5140     3.5940 hc         1 TZT       0.037867
     70 H14B         1.4710     0.2200     1.8640 hc         1 TZT       0.037867
     71 H13          5.3760     0.6240     3.7220 hc         1 TZT       0.037867
     72 H13A         3.8780     0.7210     4.6530 hc         1 TZT       0.037867
     73 H13B         4.4590    -0.8560     4.0790 hc         1 TZT       0.037867
     74 H78          2.1560    -2.5310     1.1200 h1         1 TZT       0.048700
     75 H78A         2.0480    -3.3100    -0.4760 h1         1 TZT       0.048700
     76 H78B         3.6390    -2.9370     0.1980 h1         1 TZT       0.048700
     77 H18          1.9550    -0.0590    -2.1470 h1         1 TZT       0.085700
     78 H19          2.2360    -3.0010    -2.7700 hc         1 TZT       0.055700
     79 H22          4.4280    -2.4400    -3.8060 hc         1 TZT       0.037367
     80 H22A         4.2830    -0.7650    -3.2330 hc         1 TZT       0.037367
     81 H22B         4.4610    -2.1080    -2.0860 hc         1 TZT       0.037367
     82 H20          0.7240    -1.6630    -4.3110 hc         1 TZT       0.041200
     83 H20A         2.0450    -0.5510    -4.6140 hc         1 TZT       0.041200
     84 H21          2.1190    -3.5590    -5.2810 hc         1 TZT       0.032700
     85 H21A         1.6650    -2.2810    -6.4270 hc         1 TZT       0.032700
     86 H21B         3.3130    -2.3380    -5.7880 hc         1 TZT       0.032700
     87 H23         -0.2210    -0.8700    -2.5560 h1         1 TZT       0.066700
     88 H25         -1.5050    -2.8750    -2.8380 h1         1 TZT       0.035033
     89 H25A         0.1150    -3.5600    -3.1060 h1         1 TZT       0.035033
     90 H25B        -0.9920    -4.3290    -1.9580 h1         1 TZT       0.035033
     91 H26         -0.1030    -0.7620     0.4840 hc         1 TZT       0.076200
     92 H26A         0.3230     0.6260    -0.3960 hc         1 TZT       0.076200
     93 H30         -1.0390     0.4770     2.0140 h1         1 TZT       0.052200
     94 H30A        -0.8990     2.2010     1.5780 h1         1 TZT       0.052200
     95 H31         -3.3500     0.7250     2.7720 hc         1 TZT       0.052200
     96 H31A        -2.5690     2.1760     3.4180 hc         1 TZT       0.052200
     97 H32         -4.6950     2.6160     1.8800 hc         1 TZT       0.054700
     98 H32A        -3.2390     3.5060     1.4210 hc         1 TZT       0.054700
     99 H33         -4.3090     0.8650     0.2070 h1         1 TZT       0.077700
    100 H34         -3.6330     1.8420    -1.9470 h1         1 TZT       0.079700
    101 H36         -1.7180     4.8950    -2.3670 h1         1 TZT       0.031367
    102 H36A        -2.2960     3.4300    -3.1860 h1         1 TZT       0.031367
    103 H36B        -3.4340     4.7420    -2.7850 h1         1 TZT       0.031367
    104 H37         -5.2530     3.4180    -2.4000 hc         1 TZT       0.077700
    105 H38         -5.5220     4.2890     0.5510 hc         1 TZT       0.039367
    106 H38A        -4.8180     5.2420    -0.7620 hc         1 TZT       0.039367
    107 H38B        -6.5330     4.8250    -0.7980 hc         1 TZT       0.039367
    108 HN41        -6.6080     2.6390     0.7480 hn         1 TZT       0.311500
    109 H42         -8.4350     1.3080     1.3050 h1         1 TZT       0.058200
    110 H42A        -8.6100     0.8320    -0.3960 h1         1 TZT       0.058200
    111 H43         -6.6730    -0.7490    -0.1420 hc         1 TZT       0.048200
    112 H43A        -6.4810    -0.2580     1.5310 hc         1 TZT       0.048200
    113 H45         -8.7540    -2.0110    -0.8750 ha         1 TZT       0.111500
    114 H46        -10.4300    -3.7170    -0.1930 ha         1 TZT       0.113000
    115 H47        -10.8830    -4.1280     2.2250 ha         1 TZT       0.113000
    116 H48         -9.6550    -2.8250     3.9600 ha         1 TZT       0.113000
    117 H49         -7.9790    -1.1180     3.2850 ha         1 TZT       0.111500
@<TRIPOS>BOND
     1     1     2 1   
     2     1    51 1   
     3     1    52 1   
     4     1    53 1   
     5     2     3 1   
     6     2     4 1   
     7     2    54 1   
     8     3    55 1   
     9     3    56 1   
    10     3    57 1   
    11     4     5 1   
    12     4     8 1   
    13     4    58 1   
    14     5     6 1   
    15     5     7 1   
    16     6    59 1   
    17     6    60 1   
    18     6    61 1   
    19     7    62 1   
    20     7    63 1   
    21     7    64 1   
    22     8     9 2   
    23     8    10 1   
    24    10    11 1   
    25    10    65 1   
    26    11    12 1   
    27    11    15 1   
    28    11    66 1   
    29    12    13 1   
    30    12    14 1   
    31    12    67 1   
    32    13    68 1   
    33    13    69 1   
    34    13    70 1   
    35    14    71 1   
    36    14    72 1   
    37    14    73 1   
    38    15    16 2   
    39    15    17 1   
    40    17    18 1   
    41    17    19 1   
    42    18    74 1   
    43    18    75 1   
    44    18    76 1   
    45    19    20 1   
    46    19    24 1   
    47    19    77 1   
    48    20    21 1   
    49    20    22 1   
    50    20    78 1   
    51    21    79 1   
    52    21    80 1   
    53    21    81 1   
    54    22    23 1   
    55    22    82 1   
    56    22    83 1   
    57    23    84 1   
    58    23    85 1   
    59    23    86 1   
    60    24    25 1   
    61    24    27 1   
    62    24    87 1   
    63    25    26 1   
    64    26    88 1   
    65    26    89 1   
    66    26    90 1   
    67    27    28 1   
    68    27    91 1   
    69    27    92 1   
    70    28    29 2   
    71    28    30 1   
    72    30    31 1   
    73    30    34 1   
    74    31    32 1   
    75    31    93 1   
    76    31    94 1   
    77    32    33 1   
    78    32    95 1   
    79    32    96 1   
    80    33    34 1   
    81    33    97 1   
    82    33    98 1   
    83    34    35 1   
    84    34    99 1   
    85    35    36 1   
    86    35    38 1   
    87    35   100 1   
    88    36    37 1   
    89    37   101 1   
    90    37   102 1   
    91    37   103 1   
    92    38    39 1   
    93    38    40 1   
    94    38   104 1   
    95    39   105 1   
    96    39   106 1   
    97    39   107 1   
    98    40    41 2   
    99    40    42 1   
   100    42    43 1   
   101    42   108 1   
   102    43    44 1   
   103    43   109 1   
   104    43   110 1   
   105    44    45 1   
   106    44   111 1   
   107    44   112 1   
   108    45    46 ar  
   109    45    50 ar  
   110    46    47 ar  
   111    46   113 1   
   112    47    48 ar  
   113    47   114 1   
   114    48    49 ar  
   115    48   115 1   
   116    49    50 ar  
   117    49   116 1   
   118    50   117 1   
@<TRIPOS>SUBSTRUCTURE
     1 TZT         1 TEMP              0 ****  ****    0 ROOT
