@<TRIPOS>MOLECULE
TZT
  117   118     1     0     0
SMALL
bcc


@<TRIPOS>ATOM
      1 C6           7.6300    -0.6980    -2.1150 c3         1 TZT      -0.091100
      2 C5           8.6390    -0.6810    -0.9680 c3         1 TZT      -0.078700
      3 C7           9.9470    -0.0560    -1.4410 c3         1 TZT      -0.091100
      4 C4           8.0530     0.0630     0.2420 c3         1 TZT       0.137500
      5 N2           8.8730     0.1660     1.4420 n3         1 TZT      -0.763600
      6 C3           9.5940    -1.0190     1.8430 c3         1 TZT       0.174600
      7 C1           9.6520     1.3760     1.5740 c3         1 TZT       0.174600
      8 C8           6.7280    -0.5620     0.6790 c          1 TZT       0.681100
      9 O9           6.6060    -1.7620     0.8910 o          1 TZT      -0.617100
     10 N10          5.7260     0.3190     0.8470 ns         1 TZT      -0.558900
     11 C11          4.4090    -0.0230     1.3330 c3         1 TZT       0.039700
     12 C12          3.9840     0.8990     2.4850 c3         1 TZT      -0.068700
     13 C14          2.5920     0.5200     2.9780 c3         1 TZT      -0.090100
     14 C13          4.9920     0.8370     3.6260 c3         1 TZT      -0.090100
     15 C15          3.4490     0.1090     0.1440 c          1 TZT       0.650100
     16 O16          3.3690     1.2060    -0.3990 o          1 TZT      -0.631100
     17 N17          2.7650    -0.9760    -0.2720 n          1 TZT      -0.456800
     18 C78          2.8470    -2.2540     0.4230 c3         1 TZT       0.084300
     19 C18          1.9660    -0.8900    -1.4970 c3         1 TZT       0.088700
     20 C19          2.4350    -1.9050    -2.5610 c3         1 TZT      -0.066700
     21 C22          3.9590    -1.9450    -2.6470 c3         1 TZT      -0.090100
     22 C20          1.8450    -1.5500    -3.9340 c3         1 TZT      -0.078400
     23 C21          1.9670    -2.6630    -4.9660 c3         1 TZT      -0.088100
     24 C23          0.4530    -0.9300    -1.2130 c3         1 TZT       0.152100
     25 O24          0.0290    -2.1800    -0.7130 os         1 TZT      -0.418600
     26 C25         -0.7160    -2.9760    -1.6020 c3         1 TZT       0.121700
     27 C26          0.0490     0.1450    -0.2150 c3         1 TZT      -0.166400
     28 C27         -1.4420     0.4350    -0.2330 c          1 TZT       0.676100
     29 O28         -2.1900    -0.0680    -1.0640 o          1 TZT      -0.614100
     30 N29         -1.8990     1.3130     0.6780 n          1 TZT      -0.479800
     31 C30         -1.1600     1.8930     1.7860 c5         1 TZT       0.106000
     32 C31         -2.2210     1.9770     2.8710 c5         1 TZT      -0.094400
     33 C32         -3.4690     2.3800     2.0910 c5         1 TZT      -0.086400
     34 C33         -3.3070     1.7260     0.7040 c5         1 TZT       0.118700
     35 C34         -3.6140     2.6430    -0.4860 c3         1 TZT       0.140100
     36 O35         -2.8520     3.8120    -0.3270 os         1 TZT      -0.410600
     37 C36         -2.5740     4.4960    -1.5230 c3         1 TZT       0.121700
     38 C37         -5.1140     2.9630    -0.7000 c3         1 TZT      -0.172700
     39 C38         -5.7530     3.8560     0.3590 c3         1 TZT      -0.087100
     40 C39         -5.8530     1.6670    -0.9980 c          1 TZT       0.667100
     41 O40         -5.7080     1.0950    -2.0710 o          1 TZT      -0.596100
     42 N41         -6.6510     1.1830    -0.0340 ns         1 TZT      -0.578900
     43 C42         -7.4040    -0.0450    -0.1760 c3         1 TZT       0.104000
     44 C43         -8.4910    -0.1260     0.8910 c3         1 TZT      -0.049100
     45 C44         -9.3030    -1.3820     0.7340 ca         1 TZT      -0.082300
     46 C45         -8.9210    -2.5610     1.3700 ca         1 TZT      -0.121500
     47 C46         -9.6470    -3.7320     1.1930 ca         1 TZT      -0.126000
     48 C47        -10.7680    -3.7390     0.3740 ca         1 TZT      -0.126000
     49 C48        -11.1570    -2.5690    -0.2660 ca         1 TZT      -0.126000
     50 C49        -10.4280    -1.4010    -0.0860 ca         1 TZT      -0.121500
     51 H6           8.0460    -1.2050    -2.9870 hc         1 TZT       0.036367
     52 H6A          6.7100    -1.2190    -1.8500 hc         1 TZT       0.036367
     53 H6B          7.3600     0.3160    -2.4220 hc         1 TZT       0.036367
     54 H5           8.8360    -1.7160    -0.6750 hc         1 TZT       0.069700
     55 H7          10.7330    -0.1110    -0.6890 hc         1 TZT       0.036367
     56 H7A         10.3120    -0.5750    -2.3290 hc         1 TZT       0.036367
     57 H7B          9.8130     0.9950    -1.7060 hc         1 TZT       0.036367
     58 H4           7.8540     1.0890    -0.0840 h1         1 TZT       0.052700
     59 H3          10.4780    -1.2440     1.2280 h1         1 TZT       0.031700
     60 H3A          9.9430    -0.8970     2.8710 h1         1 TZT       0.031700
     61 H3B          8.9440    -1.8910     1.8250 h1         1 TZT       0.031700
     62 H1           9.0340     2.2470     1.3520 h1         1 TZT       0.031700
     63 H1A          9.9940     1.4760     2.6060 h1         1 TZT       0.031700
     64 H1B         10.5400     1.4230     0.9290 h1         1 TZT       0.031700
     65 HN10         5.8910     1.2850     0.6130 hn         1 TZT       0.324500
     66 H11          4.4640    -1.0380     1.7190 h1         1 TZT       0.093700
     67 H12          3.9500     1.9250     2.1030 hc         1 TZT       0.063700
     68 H14          2.5740    -0.5060     3.3530 hc         1 TZT       0.037867
     69 H14A         2.2760     1.1740     3.7910 hc         1 TZT       0.037867
     70 H14B         1.8410     0.5990     2.1910 hc         1 TZT       0.037867
     71 H13          5.9940     1.1220     3.3040 hc         1 TZT       0.037867
     72 H13A         4.6980     1.5120     4.4310 hc         1 TZT       0.037867
     73 H13B         5.0490    -0.1700     4.0450 hc         1 TZT       0.037867
     74 H78          2.4040    -2.2030     1.4180 h1         1 TZT       0.048700
     75 H78A         2.2990    -3.0020    -0.1370 h1         1 TZT       0.048700
     76 H78B         3.8770    -2.6000     0.5130 h1         1 TZT       0.048700
     77 H18          2.1620     0.1050    -1.9020 h1         1 TZT       0.085700
     78 H19          2.0830    -2.9070    -2.2900 hc         1 TZT       0.055700
     79 H22          4.2880    -2.6080    -3.4470 hc         1 TZT       0.037367
     80 H22A         4.3630    -0.9520    -2.8580 hc         1 TZT       0.037367
     81 H22B         4.4270    -2.3050    -1.7310 hc         1 TZT       0.037367
     82 H20          0.7870    -1.2940    -3.8420 hc         1 TZT       0.041200
     83 H20A         2.3370    -0.6440    -4.3030 hc         1 TZT       0.041200
     84 H21          1.4670    -3.5720    -4.6240 hc         1 TZT       0.032700
     85 H21A         1.5050    -2.3690    -5.9080 hc         1 TZT       0.032700
     86 H21B         3.0050    -2.9200    -5.1820 hc         1 TZT       0.032700
     87 H23         -0.0480    -0.7140    -2.1630 h1         1 TZT       0.066700
     88 H25         -1.6270    -2.4700    -1.9330 h1         1 TZT       0.035033
     89 H25A        -0.1470    -3.2740    -2.4890 h1         1 TZT       0.035033
     90 H25B        -0.9990    -3.8840    -1.0700 h1         1 TZT       0.035033
     91 H26          0.3700    -0.1560     0.7850 hc         1 TZT       0.076200
     92 H26A         0.5760     1.0790    -0.4310 hc         1 TZT       0.076200
     93 H30         -0.3170     1.2720     2.0810 h1         1 TZT       0.052200
     94 H30A        -0.7740     2.8820     1.5260 h1         1 TZT       0.052200
     95 H31         -2.3490     0.9950     3.3320 hc         1 TZT       0.052200
     96 H31A        -1.9650     2.6880     3.6560 hc         1 TZT       0.052200
     97 H32         -4.3880     2.0520     2.5770 hc         1 TZT       0.054700
     98 H32A        -3.5120     3.4640     2.0100 hc         1 TZT       0.054700
     99 H33         -3.9320     0.8330     0.6280 h1         1 TZT       0.077700
    100 H34         -3.2890     2.1160    -1.3910 h1         1 TZT       0.079700
    101 H36         -1.9000     5.3180    -1.2850 h1         1 TZT       0.031367
    102 H36A        -2.0840     3.8470    -2.2570 h1         1 TZT       0.031367
    103 H36B        -3.4700     4.9180    -1.9910 h1         1 TZT       0.031367
    104 H37         -5.1640     3.5160    -1.6440 hc         1 TZT       0.077700
    105 H38         -5.7930     3.4140     1.3540 hc         1 TZT       0.039367
    106 H38A        -5.1960     4.7870     0.4520 hc         1 TZT       0.039367
    107 H38B        -6.7720     4.1160     0.0700 hc         1 TZT       0.039367
    108 HN41        -6.7030     1.6630     0.8490 hn         1 TZT       0.311500
    109 H42         -7.8590    -0.0740    -1.1680 h1         1 TZT       0.058200
    110 H42A        -6.7440    -0.9150    -0.1000 h1         1 TZT       0.058200
    111 H43         -8.0320    -0.1010     1.8830 hc         1 TZT       0.048200
    112 H43A        -9.1370     0.7510     0.8130 hc         1 TZT       0.048200
    113 H45         -8.0490    -2.5620     2.0140 ha         1 TZT       0.129500
    114 H46         -9.3390    -4.6370     1.7000 ha         1 TZT       0.131000
    115 H47        -11.3370    -4.6500     0.2370 ha         1 TZT       0.131000
    116 H48        -12.0330    -2.5640    -0.9030 ha         1 TZT       0.131000
    117 H49        -10.7410    -0.4920    -0.5870 ha         1 TZT       0.129500
@<TRIPOS>BOND
     1     1     2 1   
     2     1    51 1   
     3     1    52 1   
     4     1    53 1   
     5     2     3 1   
     6     2     4 1   
     7     2    54 1   
     8     3    55 1   
     9     3    56 1   
    10     3    57 1   
    11     4     5 1   
    12     4     8 1   
    13     4    58 1   
    14     5     6 1   
    15     5     7 1   
    16     6    59 1   
    17     6    60 1   
    18     6    61 1   
    19     7    62 1   
    20     7    63 1   
    21     7    64 1   
    22     8     9 2   
    23     8    10 1   
    24    10    11 1   
    25    10    65 1   
    26    11    12 1   
    27    11    15 1   
    28    11    66 1   
    29    12    13 1   
    30    12    14 1   
    31    12    67 1   
    32    13    68 1   
    33    13    69 1   
    34    13    70 1   
    35    14    71 1   
    36    14    72 1   
    37    14    73 1   
    38    15    16 2   
    39    15    17 1   
    40    17    18 1   
    41    17    19 1   
    42    18    74 1   
    43    18    75 1   
    44    18    76 1   
    45    19    20 1   
    46    19    24 1   
    47    19    77 1   
    48    20    21 1   
    49    20    22 1   
    50    20    78 1   
    51    21    79 1   
    52    21    80 1   
    53    21    81 1   
    54    22    23 1   
    55    22    82 1   
    56    22    83 1   
    57    23    84 1   
    58    23    85 1   
    59    23    86 1   
    60    24    25 1   
    61    24    27 1   
    62    24    87 1   
    63    25    26 1   
    64    26    88 1   
    65    26    89 1   
    66    26    90 1   
    67    27    28 1   
    68    27    91 1   
    69    27    92 1   
    70    28    29 2   
    71    28    30 1   
    72    30    31 1   
    73    30    34 1   
    74    31    32 1   
    75    31    93 1   
    76    31    94 1   
    77    32    33 1   
    78    32    95 1   
    79    32    96 1   
    80    33    34 1   
    81    33    97 1   
    82    33    98 1   
    83    34    35 1   
    84    34    99 1   
    85    35    36 1   
    86    35    38 1   
    87    35   100 1   
    88    36    37 1   
    89    37   101 1   
    90    37   102 1   
    91    37   103 1   
    92    38    39 1   
    93    38    40 1   
    94    38   104 1   
    95    39   105 1   
    96    39   106 1   
    97    39   107 1   
    98    40    41 2   
    99    40    42 1   
   100    42    43 1   
   101    42   108 1   
   102    43    44 1   
   103    43   109 1   
   104    43   110 1   
   105    44    45 1   
   106    44   111 1   
   107    44   112 1   
   108    45    46 ar  
   109    45    50 ar  
   110    46    47 ar  
   111    46   113 1   
   112    47    48 ar  
   113    47   114 1   
   114    48    49 ar  
   115    48   115 1   
   116    49    50 ar  
   117    49   116 1   
   118    50   117 1   
@<TRIPOS>SUBSTRUCTURE
     1 TZT         1 TEMP              0 ****  ****    0 ROOT
