@<TRIPOS>MOLECULE
TZU
   38    41     1     0     0
SMALL
No Charge or Current Charge


@<TRIPOS>ATOM
      1 C1          -8.0730   -21.9440   -23.7330 ca         1 TZU      -0.071300
      2 C2          -8.7230   -22.9160   -24.5100 ca         1 TZU      -0.100000
      3 C3          -9.1180   -22.5880   -25.8220 ca         1 TZU      -0.093000
      4 C4          -8.8630   -21.3000   -26.3370 ca         1 TZU      -0.115000
      5 C5          -8.2130   -20.3350   -25.5430 ca         1 TZU      -0.063000
      6 C6          -7.8240   -20.6810   -24.2390 ca         1 TZU      -0.111300
      7 C7          -7.1270   -19.7980   -23.2370 c5         1 TZU       0.218600
      8 C8          -6.5840   -20.8740   -22.2310 c5         1 TZU      -0.091700
      9 C9          -7.5910   -22.0990   -22.3130 c5         1 TZU      -0.030100
     10 C10         -8.0430   -19.2770   -21.1550 c          1 TZU       0.653100
     11 C11         -6.7600   -20.0830   -20.9120 c5         1 TZU      -0.177700
     12 C12         -6.7180   -20.8740   -19.5880 c3         1 TZU       0.185600
     13 C13         -6.6090   -20.4430   -17.1860 c5         1 TZU       0.411500
     14 C14         -6.5400   -19.2420   -16.2650 c2         1 TZU      -0.212200
     15 C15         -7.7160   -19.1730   -15.6320 ce         1 TZU      -0.160400
     16 C16         -8.5880   -20.2960   -16.0270 c          1 TZU       0.649300
     17 C17         -8.1270   -18.1560   -14.5830 c3         1 TZU      -0.035900
     18 O1          -9.0760   -19.3670   -20.5060 o          1 TZU      -0.467000
     19 O2          -8.1080   -19.0240   -22.5010 os         1 TZU      -0.429100
     20 O3          -6.6590   -19.9160   -18.5220 os         1 TZU      -0.441000
     21 O4          -9.7050   -20.5520   -15.6010 o          1 TZU      -0.472000
     22 O5          -7.8900   -21.0680   -16.9120 os         1 TZU      -0.458100
     23 H1          -8.9210   -23.9060   -24.1060 ha         1 TZU       0.118000
     24 H2          -9.6220   -23.3300   -26.4380 ha         1 TZU       0.116000
     25 H3          -9.1710   -21.0490   -27.3500 ha         1 TZU       0.118000
     26 H4          -8.0170   -19.3380   -25.9330 ha         1 TZU       0.122000
     27 H5          -6.3490   -19.1480   -23.6640 h1         1 TZU       0.082700
     28 H6          -5.5490   -21.1670   -22.4460 hc         1 TZU       0.077700
     29 H7          -8.4300   -22.0300   -21.6120 hc         1 TZU       0.063700
     30 H8          -7.0880   -23.0570   -22.1350 hc         1 TZU       0.063700
     31 H9          -5.9390   -19.3570   -20.9070 hc         1 TZU       0.094700
     32 H10         -7.6060   -21.5130   -19.4990 h1         1 TZU       0.047700
     33 H11         -5.8260   -21.5160   -19.5780 h1         1 TZU       0.047700
     34 H12         -5.7820   -21.1570   -17.0700 h2         1 TZU       0.071700
     35 H14         -8.7020   -18.6230   -13.7750 hc         1 TZU       0.057033
     36 H15         -7.2530   -17.6750   -14.1270 hc         1 TZU       0.057033
     37 H16         -8.7490   -17.3670   -15.0220 hc         1 TZU       0.057033
     38 H13         -5.6960   -18.5620   -16.1510 ha         1 TZU       0.216000
@<TRIPOS>BOND
     1     1     2 ar  
     2     1     6 ar  
     3     1     9 1   
     4     2     3 ar  
     5     2    23 1   
     6     3     4 ar  
     7     3    24 1   
     8     4     5 ar  
     9     4    25 1   
    10     5     6 ar  
    11     5    26 1   
    12     6     7 1   
    13     7     8 1   
    14     7    19 1   
    15     7    27 1   
    16     8     9 1   
    17     8    11 1   
    18     8    28 1   
    19     9    29 1   
    20     9    30 1   
    21    10    11 1   
    22    10    18 2   
    23    10    19 1   
    24    11    12 1   
    25    11    31 1   
    26    12    20 1   
    27    12    32 1   
    28    12    33 1   
    29    13    14 1   
    30    13    20 1   
    31    13    22 1   
    32    13    34 1   
    33    14    15 2   
    34    14    38 1   
    35    15    16 1   
    36    15    17 1   
    37    16    21 2   
    38    16    22 1   
    39    17    35 1   
    40    17    36 1   
    41    17    37 1   
@<TRIPOS>SUBSTRUCTURE
     1 TZU         1 TEMP              0 ****  ****    0 ROOT
