@<TRIPOS>MOLECULE
TZU
   38    41     1     0     0
SMALL
abcg2


@<TRIPOS>ATOM
      1 C1          -7.8730   -22.0340   -23.8170 ca         1 TZU      -0.071300
      2 C2          -8.3670   -23.0780   -24.5900 ca         1 TZU      -0.100000
      3 C3          -8.7940   -22.8120   -25.8890 ca         1 TZU      -0.093000
      4 C4          -8.7300   -21.5200   -26.4130 ca         1 TZU      -0.115000
      5 C5          -8.2350   -20.4740   -25.6400 ca         1 TZU      -0.063000
      6 C6          -7.8120   -20.7450   -24.3450 ca         1 TZU      -0.111300
      7 C7          -7.2540   -19.8000   -23.3310 c5         1 TZU       0.218600
      8 C8          -6.6650   -20.6950   -22.2230 c5         1 TZU      -0.091700
      9 C9          -7.3750   -22.0640   -22.3950 c5         1 TZU      -0.030100
     10 C10         -8.2460   -19.1490   -21.3280 c          1 TZU       0.653100
     11 C11         -6.9830   -19.9070   -20.9520 c5         1 TZU      -0.177700
     12 C12         -7.0770   -20.7000   -19.6630 c3         1 TZU       0.185600
     13 C13         -6.9980   -20.3790   -17.3210 c5         1 TZU       0.411500
     14 C14         -6.5980   -19.4160   -16.2480 c2         1 TZU      -0.212200
     15 C15         -7.6060   -19.2220   -15.4020 ce         1 TZU      -0.160400
     16 C16         -8.7480   -20.0480   -15.8740 c          1 TZU       0.649300
     17 C17         -7.7050   -18.3690   -14.1890 c3         1 TZU      -0.035900
     18 O1          -9.0810   -18.6700   -20.6010 o          1 TZU      -0.467000
     19 O2          -8.3440   -19.0580   -22.6670 os         1 TZU      -0.429100
     20 O3          -6.9170   -19.7880   -18.5680 os         1 TZU      -0.441000
     21 O4          -9.8480   -20.1630   -15.3930 o          1 TZU      -0.472000
     22 O5          -8.3780   -20.7160   -16.9970 os         1 TZU      -0.458100
     23 H1          -8.4170   -24.0850   -24.1930 ha         1 TZU       0.118000
     24 H2          -9.1750   -23.6190   -26.5030 ha         1 TZU       0.116000
     25 H3          -9.0600   -21.3340   -27.4270 ha         1 TZU       0.118000
     26 H4          -8.1770   -19.4690   -26.0420 ha         1 TZU       0.122000
     27 H5          -6.5690   -19.0520   -23.7270 h1         1 TZU       0.082700
     28 H6          -5.5930   -20.8140   -22.3630 hc         1 TZU       0.077700
     29 H7          -8.2210   -22.1720   -21.7100 hc         1 TZU       0.063700
     30 H8          -6.7010   -22.8980   -22.2000 hc         1 TZU       0.063700
     31 H9          -6.2080   -19.1430   -20.8150 hc         1 TZU       0.094700
     32 H10         -8.0370   -21.2120   -19.5810 h1         1 TZU       0.047700
     33 H11         -6.2770   -21.4460   -19.6270 h1         1 TZU       0.047700
     34 H12         -6.4430   -21.3230   -17.2910 h2         1 TZU       0.071700
     35 H14         -7.9640   -18.9740   -13.3170 hc         1 TZU       0.057033
     36 H15         -6.7650   -17.8550   -13.9960 hc         1 TZU       0.057033
     37 H16         -8.4960   -17.6250   -14.3090 hc         1 TZU       0.057033
     38 H13         -5.6140   -18.9710   -16.2200 ha         1 TZU       0.216000
@<TRIPOS>BOND
     1     1     2 ar  
     2     1     6 ar  
     3     1     9 1   
     4     2     3 ar  
     5     2    23 1   
     6     3     4 ar  
     7     3    24 1   
     8     4     5 ar  
     9     4    25 1   
    10     5     6 ar  
    11     5    26 1   
    12     6     7 1   
    13     7     8 1   
    14     7    19 1   
    15     7    27 1   
    16     8     9 1   
    17     8    11 1   
    18     8    28 1   
    19     9    29 1   
    20     9    30 1   
    21    10    11 1   
    22    10    18 2   
    23    10    19 1   
    24    11    12 1   
    25    11    31 1   
    26    12    20 1   
    27    12    32 1   
    28    12    33 1   
    29    13    14 1   
    30    13    20 1   
    31    13    22 1   
    32    13    34 1   
    33    14    15 2   
    34    14    38 1   
    35    15    16 1   
    36    15    17 1   
    37    16    21 2   
    38    16    22 1   
    39    17    35 1   
    40    17    36 1   
    41    17    37 1   
@<TRIPOS>SUBSTRUCTURE
     1 TZU         1 TEMP              0 ****  ****    0 ROOT
