@<TRIPOS>MOLECULE
TZV
   39    41     1     0     0
SMALL
bcc


@<TRIPOS>ATOM
      1 C15         18.2090   -38.1130   -26.2950 ca         1 TZV      -0.122000
      2 C17         17.5120   -35.8130   -26.3500 ca         1 TZV       0.091600
      3 C01         21.4570   -44.9890   -31.7550 c3         1 TZV       0.122700
      4 C03         21.2010   -43.0550   -30.4130 ca         1 TZV       0.164100
      5 C04         21.8130   -42.1440   -29.5150 ca         1 TZV      -0.162000
      6 C05         21.1110   -41.0890   -29.0130 ca         1 TZV      -0.057000
      7 C06         19.7600   -40.8830   -29.3770 ca         1 TZV      -0.201300
      8 C07         18.9730   -39.8120   -28.8890 ca         1 TZV       0.199100
      9 C08         17.6660   -39.6970   -29.2940 ca         1 TZV      -0.359300
     10 C09         17.1700   -40.6600   -30.1880 ca         1 TZV       0.457200
     11 N10         17.8540   -41.6660   -30.6670 nb         1 TZV      -0.691000
     12 C11         19.1440   -41.7920   -30.2710 ca         1 TZV       0.461600
     13 C12         19.8890   -42.8790   -30.7820 ca         1 TZV      -0.288300
     14 O13         19.5880   -38.9680   -28.0410 os         1 TZV      -0.248200
     15 C14         18.8770   -37.9240   -27.4940 ca         1 TZV       0.094100
     16 C16         17.5200   -37.0550   -25.7260 ca         1 TZV      -0.117000
     17 C18         18.1920   -35.6360   -27.5500 ca         1 TZV      -0.117000
     18 C19         18.8670   -36.6970   -28.1340 ca         1 TZV      -0.122000
     19 N20         16.7810   -34.7410   -25.7730 nu         1 TZV      -0.675500
     20 S21         17.4370   -33.9220   -24.4890 s6         1 TZV       1.379800
     21 O22         17.8930   -34.9270   -23.5490 o          1 TZV      -0.613300
     22 O23         16.4590   -32.9370   -24.0770 o          1 TZV      -0.613300
     23 N24         18.6950   -33.0780   -25.1510 n8         1 TZV      -0.928700
     24 H1          18.2170   -39.0820   -25.8120 ha         1 TZV       0.156000
     25 H2          22.2550   -45.6930   -31.9760 h1         1 TZV       0.045033
     26 H3          20.6110   -45.5340   -31.3270 h1         1 TZV       0.045033
     27 H4          21.1360   -44.5120   -32.6840 h1         1 TZV       0.045033
     28 H5          22.8460   -42.2990   -29.2330 ha         1 TZV       0.148000
     29 H6          21.6020   -40.4090   -28.3300 ha         1 TZV       0.148000
     30 H7          17.0160   -38.9040   -28.9530 ha         1 TZV       0.152000
     31 H8          16.1390   -40.5740   -30.5150 h4         1 TZV       0.017100
     32 H9          19.3820   -43.5500   -31.4620 ha         1 TZV       0.155000
     33 H10         16.9740   -37.2030   -24.8040 ha         1 TZV       0.155000
     34 H11         18.1920   -34.6690   -28.0360 ha         1 TZV       0.155000
     35 H12         19.3930   -36.5610   -29.0700 ha         1 TZV       0.156000
     36 H13         16.3980   -34.0930   -26.4550 hn         1 TZV       0.437800
     37 H14         18.9250   -32.2590   -24.5970 hn         1 TZV       0.421300
     38 H15         19.5250   -33.6470   -25.2820 hn         1 TZV       0.421300
     39 O02         21.9910   -44.0490   -30.8410 os         1 TZV      -0.313900
@<TRIPOS>BOND
     1     1    15 ar  
     2     1    16 ar  
     3     1    24 1   
     4     2    16 ar  
     5     2    17 ar  
     6     2    19 1   
     7     3    25 1   
     8     3    26 1   
     9     3    27 1   
    10     3    39 1   
    11     4     5 ar  
    12     4    13 ar  
    13     4    39 1   
    14     5     6 ar  
    15     5    28 1   
    16     6     7 ar  
    17     6    29 1   
    18     7     8 ar  
    19     7    12 ar  
    20     8     9 ar  
    21     8    14 1   
    22     9    10 ar  
    23     9    30 1   
    24    10    11 ar  
    25    10    31 1   
    26    11    12 ar  
    27    12    13 ar  
    28    13    32 1   
    29    14    15 1   
    30    15    18 ar  
    31    16    33 1   
    32    17    18 ar  
    33    17    34 1   
    34    18    35 1   
    35    19    20 1   
    36    19    36 1   
    37    20    21 2   
    38    20    22 2   
    39    20    23 1   
    40    23    37 1   
    41    23    38 1   
@<TRIPOS>SUBSTRUCTURE
     1 TZV         1 TEMP              0 ****  ****    0 ROOT
