@<TRIPOS>MOLECULE
TZV
   39    41     1     0     0
SMALL
No Charge or Current Charge


@<TRIPOS>ATOM
      1 C15         18.1650   -38.1320   -25.7200 ca         1 TZV      -0.104000
      2 C17         17.9360   -35.7870   -26.3710 ca         1 TZV       0.230000
      3 C01         21.8170   -44.5240   -32.3010 c3         1 TZV       0.145900
      4 C03         21.1840   -43.0060   -30.4590 ca         1 TZV       0.164100
      5 C04         21.5500   -42.4090   -29.2450 ca         1 TZV      -0.144000
      6 C05         20.6700   -41.5330   -28.5910 ca         1 TZV      -0.039000
      7 C06         19.4100   -41.2510   -29.1570 ca         1 TZV      -0.136000
      8 C07         18.5080   -40.3720   -28.5280 ca         1 TZV       0.199100
      9 C08         17.2650   -40.1370   -29.1290 ca         1 TZV      -0.276000
     10 C09         16.9700   -40.7680   -30.3400 ca         1 TZV       0.391900
     11 N10         17.8310   -41.6050   -30.9580 nb         1 TZV      -0.691000
     12 C11         19.0300   -41.8480   -30.3830 ca         1 TZV       0.331000
     13 C12         19.9240   -42.7220   -31.0230 ca         1 TZV      -0.205000
     14 O13         18.8280   -39.7800   -27.3260 os         1 TZV      -0.248200
     15 C14         18.5260   -38.4690   -27.0340 ca         1 TZV       0.094100
     16 C16         17.8630   -36.7980   -25.3900 ca         1 TZV      -0.099000
     17 C18         18.3000   -36.1310   -27.6850 ca         1 TZV      -0.099000
     18 C19         18.6020   -37.4650   -28.0180 ca         1 TZV      -0.104000
     19 N20         17.6320   -34.4610   -26.0740 nu         1 TZV      -0.869100
     20 S21         18.0160   -33.6470   -24.7200 s6         1 TZV       1.238200
     21 O22         19.3290   -34.0800   -24.2610 o          1 TZV      -0.542500
     22 O23         16.8500   -33.5890   -23.8510 o          1 TZV      -0.542500
     23 N24         18.1960   -32.1930   -25.3720 n8         1 TZV      -1.039100
     24 H1          18.1110   -38.9070   -24.9580 ha         1 TZV       0.138000
     25 H2          22.6690   -45.1510   -32.5930 h1         1 TZV       0.045033
     26 H3          20.9340   -45.1700   -32.2140 h1         1 TZV       0.045033
     27 H4          21.6430   -43.7950   -33.1030 h1         1 TZV       0.045033
     28 H5          22.5210   -42.6270   -28.8080 ha         1 TZV       0.130000
     29 H6          20.9740   -41.0790   -27.6500 ha         1 TZV       0.130000
     30 H7          16.5320   -39.4830   -28.6680 ha         1 TZV       0.134000
     31 H8          16.0120   -40.6050   -30.8330 h4         1 TZV       0.017100
     32 H9          19.6170   -43.1710   -31.9610 ha         1 TZV       0.137000
     33 H10         17.5690   -36.5560   -24.3730 ha         1 TZV       0.137000
     34 H11         18.3550   -35.3640   -28.4530 ha         1 TZV       0.137000
     35 H12         18.8970   -37.7120   -29.0350 ha         1 TZV       0.138000
     36 H13         17.8610   -33.7720   -26.7760 hn         1 TZV       0.493000
     37 H14         17.4600   -31.6880   -24.8830 hn         1 TZV       0.476500
     38 H15         19.0210   -31.8670   -24.8730 hn         1 TZV       0.476500
     39 O02         22.0910   -43.8590   -31.0550 os         1 TZV      -0.337100
@<TRIPOS>BOND
     1     1    15 ar  
     2     1    16 ar  
     3     1    24 1   
     4     2    16 ar  
     5     2    17 ar  
     6     2    19 1   
     7     3    25 1   
     8     3    26 1   
     9     3    27 1   
    10     3    39 1   
    11     4     5 ar  
    12     4    13 ar  
    13     4    39 1   
    14     5     6 ar  
    15     5    28 1   
    16     6     7 ar  
    17     6    29 1   
    18     7     8 ar  
    19     7    12 ar  
    20     8     9 ar  
    21     8    14 1   
    22     9    10 ar  
    23     9    30 1   
    24    10    11 ar  
    25    10    31 1   
    26    11    12 ar  
    27    12    13 ar  
    28    13    32 1   
    29    14    15 1   
    30    15    18 ar  
    31    16    33 1   
    32    17    18 ar  
    33    17    34 1   
    34    18    35 1   
    35    19    20 1   
    36    19    36 1   
    37    20    21 2   
    38    20    22 2   
    39    20    23 1   
    40    23    37 1   
    41    23    38 1   
@<TRIPOS>SUBSTRUCTURE
     1 TZV         1 TEMP              0 ****  ****    0 ROOT
