@<TRIPOS>MOLECULE
TZW
   32    33     1     0     0
SMALL
abcg2


@<TRIPOS>ATOM
      1 C02        -21.8240   -17.4100     1.6850 c6         1 TZW       0.170300
      2 C03        -20.8240   -18.4350     1.1730 c6         1 TZW      -0.097400
      3 C04        -21.1610   -18.9280    -0.2280 c6         1 TZW       0.209800
      4 C06        -22.8500   -20.3490    -1.2500 ca         1 TZW       0.353000
      5 C07        -23.9380   -21.2320    -1.1380 ca         1 TZW      -0.186200
      6 C11        -24.3310   -22.0830    -2.1620 ca         1 TZW      -0.048000
      7 C12        -23.6010   -22.1360    -3.3300 ca         1 TZW      -0.092000
      8 C13        -22.4870   -21.3100    -3.4610 ca         1 TZW      -0.137600
      9 C14        -21.6700   -21.3190    -4.6930 c          1 TZW       0.579500
     10 C15        -22.1320   -20.4300    -2.4500 ca         1 TZW      -0.144000
     11 C16        -23.5090   -18.4620     0.1450 c6         1 TZW       0.209800
     12 C17        -23.2380   -17.9710     1.5560 c6         1 TZW      -0.097400
     13 N05        -22.5150   -19.4590    -0.2500 nh         1 TZW      -0.795400
     14 N08        -24.6840   -21.3590     0.1090 no         1 TZW       0.691200
     15 O01        -21.6520   -16.2320     0.9220 oh         1 TZW      -0.666000
     16 O09        -25.8890   -21.4100     0.0340 o          1 TZW      -0.390500
     17 O10        -24.0580   -21.4520     1.1360 o          1 TZW      -0.390500
     18 H1         -21.6180   -17.2140     2.7460 h1         1 TZW       0.039700
     19 H2         -20.8180   -19.2870     1.8580 hc         1 TZW       0.062950
     20 H3         -19.8160   -18.0150     1.1740 hc         1 TZW       0.062950
     21 H4         -20.4630   -19.7230    -0.4940 h1         1 TZW       0.044700
     22 H5         -21.0290   -18.1200    -0.9600 h1         1 TZW       0.044700
     23 H6         -25.1830   -22.7350    -2.0260 ha         1 TZW       0.147000
     24 H7         -23.8870   -22.8140    -4.1220 ha         1 TZW       0.146000
     25 H8         -20.8000   -20.6410    -4.6740 h4         1 TZW      -0.003800
     26 H11        -21.2890   -19.7690    -2.6070 ha         1 TZW       0.127000
     27 H12        -23.4800   -17.6180    -0.5570 h1         1 TZW       0.044700
     28 H13        -24.5170   -18.8670     0.0800 h1         1 TZW       0.044700
     29 H14        -23.9760   -17.2100     1.8240 hc         1 TZW       0.062950
     30 H15        -23.3620   -18.7960     2.2610 hc         1 TZW       0.062950
     31 H16        -22.3310   -15.6010     1.1800 ho         1 TZW       0.443000
     32 O1         -21.9090   -22.0030    -5.6570 o          1 TZW      -0.498100
@<TRIPOS>BOND
     1     1     2 1   
     2     1    12 1   
     3     1    15 1   
     4     1    18 1   
     5     2     3 1   
     6     2    19 1   
     7     2    20 1   
     8     3    13 1   
     9     3    21 1   
    10     3    22 1   
    11     4     5 ar  
    12     4    10 ar  
    13     4    13 1   
    14     5     6 ar  
    15     5    14 1   
    16     6     7 ar  
    17     6    23 1   
    18     7     8 ar  
    19     7    24 1   
    20     8     9 1   
    21     8    10 ar  
    22     9    25 1   
    23     9    32 2   
    24    10    26 1   
    25    11    12 1   
    26    11    13 1   
    27    11    27 1   
    28    11    28 1   
    29    12    29 1   
    30    12    30 1   
    31    14    16 1   
    32    14    17 1   
    33    15    31 1   
@<TRIPOS>SUBSTRUCTURE
     1 TZW         1 TEMP              0 ****  ****    0 ROOT
