@<TRIPOS>MOLECULE
TZW
   32    33     1     0     0
SMALL
No Charge or Current Charge


@<TRIPOS>ATOM
      1 C02        -21.8920   -17.3960     1.7270 c6         1 TZW       0.170300
      2 C03        -20.9510   -18.5820     1.4080 c6         1 TZW      -0.097400
      3 C04        -21.1080   -19.0690    -0.0510 c6         1 TZW       0.209800
      4 C06        -22.8540   -20.3740    -1.3030 ca         1 TZW       0.353000
      5 C07        -23.8100   -21.3720    -1.0430 ca         1 TZW      -0.186200
      6 C11        -24.1610   -22.3000    -2.0460 ca         1 TZW      -0.048000
      7 C12        -23.5450   -22.2420    -3.3070 ca         1 TZW      -0.092000
      8 C13        -22.5770   -21.2540    -3.5800 ca         1 TZW      -0.137600
      9 C14        -21.9070   -21.1750    -4.9290 c          1 TZW       0.579500
     10 C15        -22.2430   -20.3250    -2.5710 ca         1 TZW      -0.144000
     11 C16        -23.4540   -18.2600    -0.1160 c6         1 TZW       0.209800
     12 C17        -23.3490   -17.7520     1.3420 c6         1 TZW      -0.097400
     13 N05        -22.5290   -19.4030    -0.3330 nh         1 TZW      -0.795400
     14 N08        -24.4510   -21.4590     0.2850 no         1 TZW       0.691200
     15 O01        -21.4580   -16.2140     1.0390 oh         1 TZW      -0.666000
     16 O09        -25.6860   -21.5360     0.3100 o          1 TZW      -0.390500
     17 O10        -23.7290   -21.7230     1.2560 o          1 TZW      -0.390500
     18 H1         -21.8560   -17.2140     2.8120 h1         1 TZW       0.039700
     19 H2         -21.1750   -19.4150     2.0880 hc         1 TZW       0.062950
     20 H3         -19.9070   -18.3010     1.5980 hc         1 TZW       0.062950
     21 H4         -20.4710   -19.9540    -0.2010 h1         1 TZW       0.044700
     22 H5         -20.7570   -18.2870    -0.7400 h1         1 TZW       0.044700
     23 H6         -24.9030   -23.0720    -1.8470 ha         1 TZW       0.147000
     24 H7         -23.8230   -22.9680    -4.0700 ha         1 TZW       0.146000
     25 H8         -21.1600   -20.3600    -5.0520 h4         1 TZW      -0.003800
     26 H11        -21.5130   -19.5470    -2.7770 ha         1 TZW       0.127000
     27 H12        -23.2120   -17.4420    -0.8110 h1         1 TZW       0.044700
     28 H13        -24.4930   -18.5610    -0.3140 h1         1 TZW       0.044700
     29 H14        -24.0070   -16.8850     1.4840 hc         1 TZW       0.062950
     30 H15        -23.7200   -18.5340     2.0180 hc         1 TZW       0.062950
     31 H16        -21.9880   -15.4680     1.3980 ho         1 TZW       0.443000
     32 O1         -22.1510   -21.9460    -5.8520 o          1 TZW      -0.498100
@<TRIPOS>BOND
     1     1     2 1   
     2     1    12 1   
     3     1    15 1   
     4     1    18 1   
     5     2     3 1   
     6     2    19 1   
     7     2    20 1   
     8     3    13 1   
     9     3    21 1   
    10     3    22 1   
    11     4     5 ar  
    12     4    10 ar  
    13     4    13 1   
    14     5     6 ar  
    15     5    14 1   
    16     6     7 ar  
    17     6    23 1   
    18     7     8 ar  
    19     7    24 1   
    20     8     9 1   
    21     8    10 ar  
    22     9    25 1   
    23     9    32 2   
    24    10    26 1   
    25    11    12 1   
    26    11    13 1   
    27    11    27 1   
    28    11    28 1   
    29    12    29 1   
    30    12    30 1   
    31    14    16 1   
    32    14    17 1   
    33    15    31 1   
@<TRIPOS>SUBSTRUCTURE
     1 TZW         1 TEMP              0 ****  ****    0 ROOT
