@<TRIPOS>MOLECULE
TZX
   62    66     1     0     0
SMALL
No Charge or Current Charge


@<TRIPOS>ATOM
      1 C10         19.5540   -19.8700    11.0180 ca         1 TZX      -0.212000
      2 C04         21.1340   -19.5720    12.8690 ca         1 TZX       0.036100
      3 C06         22.9220   -19.4300    14.6350 c3         1 TZX       0.148900
      4 C07         20.8030   -20.1380    11.6130 ca         1 TZX       0.150600
      5 C09         21.4910   -21.5910     9.7250 c3         1 TZX       0.146400
      6 C11         18.6040   -19.0500    11.6560 cp         1 TZX       0.031000
      7 C12         17.2870   -18.7650    11.0190 cp         1 TZX      -0.088000
      8 C01         19.5620   -17.2860    15.4510 c3         1 TZX       0.146400
      9 C03         20.1850   -18.7240    13.5200 ca         1 TZX       0.150600
     10 C13         16.9280   -17.4220    10.7480 ca         1 TZX       0.339900
     11 C15         14.9020   -18.0260     9.8200 ca         1 TZX       0.339900
     12 C16         15.1360   -19.4070    10.0390 cp         1 TZX      -0.052000
     13 C17         16.3540   -19.7820    10.6670 ca         1 TZX      -0.017300
     14 C18         16.5780   -21.2570    11.0190 c3         1 TZX      -0.076100
     15 C19         16.7950   -22.1740     9.7920 c3         1 TZX       0.175600
     16 C21         14.5510   -21.6380     8.9790 ca         1 TZX       0.166100
     17 C22         14.1380   -20.4350     9.6030 cp         1 TZX      -0.124000
     18 C23         12.7500   -20.2370     9.7860 ca         1 TZX      -0.038000
     19 C24         11.8240   -21.2060     9.3610 ca         1 TZX      -0.207000
     20 C25         12.2530   -22.3920     8.7340 ca         1 TZX       0.371000
     21 C27         11.6590   -24.8230     8.2160 c6         1 TZX       0.218300
     22 C28         10.4010   -25.7460     8.3730 c6         1 TZX       0.142800
     23 C30          9.2490   -24.0310     6.9600 c6         1 TZX       0.142800
     24 C31          9.8920   -23.0150     7.9670 c6         1 TZX       0.218300
     25 C32         13.6290   -22.5950     8.5400 ca         1 TZX      -0.214000
     26 C33         18.9390   -18.4770    12.8990 ca         1 TZX      -0.212000
     27 N14         15.7670   -17.0480    10.1660 nb         1 TZX      -0.662000
     28 N26         11.3170   -23.3620     8.3000 nh         1 TZX      -0.841400
     29 N29          9.2980   -25.4650     7.3970 n7         1 TZX      -0.863400
     30 O02         20.4750   -18.1470    14.7470 os         1 TZX      -0.332600
     31 O05         22.3940   -19.8940    13.3790 os         1 TZX      -0.336100
     32 O08         21.7360   -20.9540    10.9920 os         1 TZX      -0.332600
     33 O20         15.8900   -21.8190     8.7280 os         1 TZX      -0.374100
     34 H1          19.2970   -20.2850    10.0500 ha         1 TZX       0.125500
     35 H2          23.9280   -19.8370    14.7930 h1         1 TZX       0.037033
     36 H3          22.9980   -18.3360    14.6490 h1         1 TZX       0.037033
     37 H4          22.2930   -19.7610    15.4720 h1         1 TZX       0.037033
     38 H5          22.3590   -22.1920     9.4280 h1         1 TZX       0.043367
     39 H6          20.6210   -22.2580     9.7850 h1         1 TZX       0.043367
     40 H7          21.3110   -20.8450     8.9410 h1         1 TZX       0.043367
     41 H8          20.0090   -16.9510    16.3950 h1         1 TZX       0.043367
     42 H9          19.3250   -16.3960    14.8540 h1         1 TZX       0.043367
     43 H10         18.6290   -17.8150    15.6860 h1         1 TZX       0.043367
     44 H11         17.6100   -16.6130    11.0060 h4         1 TZX       0.022100
     45 H12         13.9830   -17.6960     9.3370 h4         1 TZX       0.022100
     46 H13         15.7070   -21.6280    11.5720 hc         1 TZX       0.067200
     47 H14         17.4170   -21.3920    11.7090 hc         1 TZX       0.067200
     48 H15         16.6440   -23.2190    10.0950 h1         1 TZX       0.049200
     49 H16         17.8300   -22.0760     9.4430 h1         1 TZX       0.049200
     50 H17         12.3880   -19.3320    10.2700 ha         1 TZX       0.113000
     51 H18         10.7670   -21.0280     9.5320 ha         1 TZX       0.116000
     52 H19         12.3760   -25.0890     9.0070 h1         1 TZX       0.049700
     53 H20         12.1430   -25.0400     7.2520 h1         1 TZX       0.049700
     54 H21         10.7010   -26.8020     8.3000 h1         1 TZX       0.048950
     55 H22         10.0080   -25.5980     9.3910 h1         1 TZX       0.048950
     56 H23          9.7940   -23.9390     6.0090 h1         1 TZX       0.048950
     57 H24          8.2070   -23.7430     6.7570 h1         1 TZX       0.048950
     58 H25          9.2870   -22.9910     8.8850 h1         1 TZX       0.049700
     59 H26          9.8420   -22.0130     7.5160 h1         1 TZX       0.049700
     60 H27         13.9920   -23.4840     8.0370 ha         1 TZX       0.124000
     61 H28         18.1970   -17.8410    13.3720 ha         1 TZX       0.125500
     62 H29          9.4360   -26.0420     6.5570 hn         1 TZX       0.412000
@<TRIPOS>BOND
     1     1     4 ar  
     2     1     6 ar  
     3     1    34 1   
     4     2     4 ar  
     5     2     9 ar  
     6     2    31 1   
     7     3    31 1   
     8     3    35 1   
     9     3    36 1   
    10     3    37 1   
    11     4    32 1   
    12     5    32 1   
    13     5    38 1   
    14     5    39 1   
    15     5    40 1   
    16     6     7 1   
    17     6    26 ar  
    18     7    10 ar  
    19     7    13 ar  
    20     8    30 1   
    21     8    41 1   
    22     8    42 1   
    23     8    43 1   
    24     9    26 ar  
    25     9    30 1   
    26    10    27 ar  
    27    10    44 1   
    28    11    12 ar  
    29    11    27 ar  
    30    11    45 1   
    31    12    13 ar  
    32    12    17 1   
    33    13    14 1   
    34    14    15 1   
    35    14    46 1   
    36    14    47 1   
    37    15    33 1   
    38    15    48 1   
    39    15    49 1   
    40    16    17 ar  
    41    16    25 ar  
    42    16    33 1   
    43    17    18 ar  
    44    18    19 ar  
    45    18    50 1   
    46    19    20 ar  
    47    19    51 1   
    48    20    25 ar  
    49    20    28 1   
    50    21    22 1   
    51    21    28 1   
    52    21    52 1   
    53    21    53 1   
    54    22    29 1   
    55    22    54 1   
    56    22    55 1   
    57    23    24 1   
    58    23    29 1   
    59    23    56 1   
    60    23    57 1   
    61    24    28 1   
    62    24    58 1   
    63    24    59 1   
    64    25    60 1   
    65    26    61 1   
    66    29    62 1   
@<TRIPOS>SUBSTRUCTURE
     1 TZX         1 TEMP              0 ****  ****    0 ROOT
