@<TRIPOS>MOLECULE
TZX
   62    66     1     0     0
SMALL
abcg2


@<TRIPOS>ATOM
      1 C10         19.5020   -19.9590    11.1710 ca         1 TZX      -0.212000
      2 C04         20.8720   -19.7620    13.1590 ca         1 TZX       0.036100
      3 C06         22.9840   -19.0660    13.9620 c3         1 TZX       0.148900
      4 C07         20.6750   -20.2580    11.8640 ca         1 TZX       0.150600
      5 C09         21.5120   -21.5780    10.0580 c3         1 TZX       0.146400
      6 C11         18.5210   -19.1680    11.7680 cp         1 TZX       0.031000
      7 C12         17.2770   -18.8390    11.0300 cp         1 TZX      -0.088000
      8 C01         19.1450   -17.7820    15.6950 c3         1 TZX       0.146400
      9 C03         19.8790   -18.9720    13.7550 ca         1 TZX       0.150600
     10 C13         16.9700   -17.4980    10.7860 ca         1 TZX       0.339900
     11 C15         15.0440   -18.0250     9.6880 ca         1 TZX       0.339900
     12 C16         15.2310   -19.3940     9.8840 cp         1 TZX      -0.052000
     13 C17         16.3750   -19.8140    10.5880 ca         1 TZX      -0.017300
     14 C18         16.5160   -21.2740    10.9220 c3         1 TZX      -0.076100
     15 C19         16.7840   -22.1590     9.7090 c3         1 TZX       0.175600
     16 C21         14.6320   -21.5850     8.8280 ca         1 TZX       0.166100
     17 C22         14.2370   -20.3660     9.4020 cp         1 TZX      -0.124000
     18 C23         12.8600   -20.1450     9.5070 ca         1 TZX      -0.038000
     19 C24         11.9250   -21.0810     9.1020 ca         1 TZX      -0.207000
     20 C25         12.3310   -22.3170     8.5470 ca         1 TZX       0.371000
     21 C27         11.7870   -24.6290     7.8370 c6         1 TZX       0.218300
     22 C28         10.7670   -25.6040     8.4210 c6         1 TZX       0.142800
     23 C30          9.2200   -24.0010     7.3930 c6         1 TZX       0.142800
     24 C31          9.9830   -22.9570     8.1870 c6         1 TZX       0.218300
     25 C32         13.7180   -22.5310     8.4030 ca         1 TZX      -0.214000
     26 C33         18.7100   -18.6710    13.0560 ca         1 TZX      -0.212000
     27 N14         15.8810   -17.0880    10.1350 nb         1 TZX      -0.662000
     28 N26         11.4120   -23.2580     8.1670 nh         1 TZX      -0.841400
     29 N29          9.3800   -25.3250     8.0030 n7         1 TZX      -0.863400
     30 O02         20.1330   -18.5650    15.0250 os         1 TZX      -0.332600
     31 O05         22.0060   -20.1110    13.8460 os         1 TZX      -0.336100
     32 O08         21.6790   -21.0220    11.3620 os         1 TZX      -0.332600
     33 O20         15.9690   -21.8160     8.5750 os         1 TZX      -0.374100
     34 H1          19.3580   -20.3100    10.1610 ha         1 TZX       0.125500
     35 H2          23.8170   -19.4840    14.5230 h1         1 TZX       0.037033
     36 H3          23.3270   -18.7570    12.9710 h1         1 TZX       0.037033
     37 H4          22.5750   -18.2070    14.4950 h1         1 TZX       0.037033
     38 H5          22.4020   -22.1750     9.8750 h1         1 TZX       0.043367
     39 H6          20.6250   -22.2130    10.0110 h1         1 TZX       0.043367
     40 H7          21.4370   -20.7920     9.3020 h1         1 TZX       0.043367
     41 H8          19.5750   -17.5260    16.6600 h1         1 TZX       0.043367
     42 H9          18.9230   -16.8680    15.1390 h1         1 TZX       0.043367
     43 H10         18.2260   -18.3540    15.8400 h1         1 TZX       0.043367
     44 H11         17.6490   -16.7260    11.1330 h4         1 TZX       0.022100
     45 H12         14.1780   -17.6760     9.1360 h4         1 TZX       0.022100
     46 H13         15.5850   -21.6000    11.3950 hc         1 TZX       0.067200
     47 H14         17.3170   -21.4380    11.6410 hc         1 TZX       0.067200
     48 H15         16.6130   -23.2070     9.9750 h1         1 TZX       0.049200
     49 H16         17.8090   -22.0490     9.3590 h1         1 TZX       0.049200
     50 H17         12.5100   -19.2290     9.9670 ha         1 TZX       0.113000
     51 H18         10.8770   -20.8620     9.2370 ha         1 TZX       0.116000
     52 H19         12.7540   -24.8510     8.2830 h1         1 TZX       0.049700
     53 H20         11.8860   -24.7720     6.7540 h1         1 TZX       0.049700
     54 H21         11.0380   -26.6190     8.1280 h1         1 TZX       0.048950
     55 H22         10.8430   -25.5490     9.5120 h1         1 TZX       0.048950
     56 H23          9.5710   -23.9710     6.3520 h1         1 TZX       0.048950
     57 H24          8.1620   -23.7330     7.3850 h1         1 TZX       0.048950
     58 H25          9.6020   -22.9200     9.2160 h1         1 TZX       0.049700
     59 H26          9.8070   -21.9760     7.7400 h1         1 TZX       0.049700
     60 H27         14.1040   -23.4250     7.9360 ha         1 TZX       0.124000
     61 H28         17.9320   -18.0810    13.5160 ha         1 TZX       0.125500
     62 H29          9.0760   -26.0300     7.3430 hn         1 TZX       0.412000
@<TRIPOS>BOND
     1     1     4 ar  
     2     1     6 ar  
     3     1    34 1   
     4     2     4 ar  
     5     2     9 ar  
     6     2    31 1   
     7     3    31 1   
     8     3    35 1   
     9     3    36 1   
    10     3    37 1   
    11     4    32 1   
    12     5    32 1   
    13     5    38 1   
    14     5    39 1   
    15     5    40 1   
    16     6     7 1   
    17     6    26 ar  
    18     7    10 ar  
    19     7    13 ar  
    20     8    30 1   
    21     8    41 1   
    22     8    42 1   
    23     8    43 1   
    24     9    26 ar  
    25     9    30 1   
    26    10    27 ar  
    27    10    44 1   
    28    11    12 ar  
    29    11    27 ar  
    30    11    45 1   
    31    12    13 ar  
    32    12    17 1   
    33    13    14 1   
    34    14    15 1   
    35    14    46 1   
    36    14    47 1   
    37    15    33 1   
    38    15    48 1   
    39    15    49 1   
    40    16    17 ar  
    41    16    25 ar  
    42    16    33 1   
    43    17    18 ar  
    44    18    19 ar  
    45    18    50 1   
    46    19    20 ar  
    47    19    51 1   
    48    20    25 ar  
    49    20    28 1   
    50    21    22 1   
    51    21    28 1   
    52    21    52 1   
    53    21    53 1   
    54    22    29 1   
    55    22    54 1   
    56    22    55 1   
    57    23    24 1   
    58    23    29 1   
    59    23    56 1   
    60    23    57 1   
    61    24    28 1   
    62    24    58 1   
    63    24    59 1   
    64    25    60 1   
    65    26    61 1   
    66    29    62 1   
@<TRIPOS>SUBSTRUCTURE
     1 TZX         1 TEMP              0 ****  ****    0 ROOT
