@<TRIPOS>MOLECULE
TZY
   39    42     1     0     0
SMALL
No Charge or Current Charge


@<TRIPOS>ATOM
      1 C7           1.7380    -0.5670     0.1080 cc         1 TZY      -0.058000
      2 C9          -1.1610    -3.3170     1.1170 cc         1 TZY       0.443900
      3 C13          0.7910     1.8810    -1.0770 cc         1 TZY      -0.073000
      4 C21          4.8340    -0.6680     0.3010 c3         1 TZY      -0.063000
      5 C8          -0.1150     0.9270    -0.6760 cd         1 TZY      -0.082000
      6 C18         -4.9620     1.5470    -0.1540 ca         1 TZY       0.182000
      7 C16          2.1720     1.6170    -0.8860 cc         1 TZY      -0.105000
      8 F22         -5.9180     2.4790    -0.3550 f          1 TZY      -0.176000
      9 C15         -5.0090     0.3350    -0.8600 ca         1 TZY      -0.157500
     10 C11         -4.0150    -0.6380    -0.6510 ca         1 TZY      -0.059500
     11 C14         -3.9320     1.7900     0.7660 ca         1 TZY      -0.157500
     12 C10         -2.9370     0.8190     0.9770 ca         1 TZY      -0.059500
     13 C5          -2.9600    -0.3910     0.2520 ca         1 TZY      -0.140500
     14 C2          -1.9420    -1.4220     0.5000 cd         1 TZY       0.318500
     15 N6          -2.3300    -2.6840     0.9310 nd         1 TZY      -0.671000
     16 O4          -0.0780    -2.5360     0.8220 os         1 TZY      -0.261000
     17 C1          -0.5220    -1.3410     0.4020 cd         1 TZY       0.167500
     18 C3           0.3720    -0.2960    -0.0590 cd         1 TZY      -0.161500
     19 N12          2.5880     0.4480    -0.3470 na         1 TZY       0.009200
     20 C17          3.9550     0.4330    -0.2640 cc         1 TZY       0.328800
     21 C24          6.2490    -0.6880    -0.3290 c3         1 TZY      -0.086600
     22 C23          4.9120    -0.5930     1.8430 c3         1 TZY      -0.086600
     23 N19          3.2450     2.3370    -1.1580 nd         1 TZY      -0.086000
     24 N20          4.3610     1.6000    -0.7620 nd         1 TZY      -0.351700
     25 H7           2.1710    -1.4550     0.5500 h4         1 TZY       0.158000
     26 H9          -0.9980    -4.3340     1.4580 h5         1 TZY       0.088100
     27 H13          0.4740     2.8140    -1.5340 ha         1 TZY       0.152000
     28 H21          4.3780    -1.6320     0.0450 hc         1 TZY       0.051700
     29 H8          -1.1670     1.1080    -0.8500 ha         1 TZY       0.138000
     30 H15         -5.8170     0.1500    -1.5640 ha         1 TZY       0.136000
     31 H11         -4.0590    -1.5800    -1.1940 ha         1 TZY       0.128000
     32 H14         -3.9080     2.7270     1.3170 ha         1 TZY       0.136000
     33 H10         -2.1450     1.0070     1.7010 ha         1 TZY       0.128000
     34 H241         6.8270    -1.5430     0.0440 hc         1 TZY       0.044867
     35 H242         6.1840    -0.7740    -1.4200 hc         1 TZY       0.044867
     36 H243         6.8010     0.2280    -0.0880 hc         1 TZY       0.044867
     37 H231         5.3790     0.3470     2.1640 hc         1 TZY       0.044867
     38 H232         3.9100    -0.6440     2.2870 hc         1 TZY       0.044867
     39 H233         5.5030    -1.4250     2.2450 hc         1 TZY       0.044867
@<TRIPOS>BOND
     1     1    18 2   
     2     1    19 1   
     3     1    25 1   
     4     2    15 2   
     5     2    16 1   
     6     2    26 1   
     7     3     5 2   
     8     3     7 1   
     9     3    27 1   
    10     4    20 1   
    11     4    21 1   
    12     4    22 1   
    13     4    28 1   
    14     5    18 1   
    15     5    29 1   
    16     6     8 1   
    17     6     9 ar  
    18     6    11 ar  
    19     7    19 1   
    20     7    23 2   
    21     9    10 ar  
    22     9    30 1   
    23    10    13 ar  
    24    10    31 1   
    25    11    12 ar  
    26    11    32 1   
    27    12    13 ar  
    28    12    33 1   
    29    13    14 1   
    30    14    15 1   
    31    14    17 2   
    32    16    17 1   
    33    17    18 1   
    34    19    20 1   
    35    20    24 2   
    36    21    34 1   
    37    21    35 1   
    38    21    36 1   
    39    22    37 1   
    40    22    38 1   
    41    22    39 1   
    42    23    24 1   
@<TRIPOS>SUBSTRUCTURE
     1 TZY         1 TEMP              0 ****  ****    0 ROOT
