@<TRIPOS>MOLECULE
TZY
   39    42     1     0     0
SMALL
bcc


@<TRIPOS>ATOM
      1 C7           1.6860    -0.6480    -0.0920 cc         1 TZY      -0.025300
      2 C9          -1.2640    -3.5150     0.3070 cc         1 TZY       0.488300
      3 C13          0.8990     1.5380    -1.6630 cc         1 TZY      -0.091000
      4 C21          4.7350    -0.5260     0.5550 c3         1 TZY      -0.063000
      5 C8          -0.0040     0.6060    -1.2740 cd         1 TZY      -0.100000
      6 C18         -4.7080     1.6620     0.5010 ca         1 TZY       0.146900
      7 C16          2.2470     1.3880    -1.2580 cc         1 TZY      -0.054300
      8 F22         -5.5960     2.6640     0.5940 f          1 TZY      -0.140900
      9 C15         -5.1230     0.4470    -0.0090 ca         1 TZY      -0.175500
     10 C11         -4.2000    -0.5830    -0.1040 ca         1 TZY      -0.077500
     11 C14         -3.4110     1.8760     0.9270 ca         1 TZY      -0.175500
     12 C10         -2.5020     0.8350     0.8300 ca         1 TZY      -0.077500
     13 C5          -2.8770    -0.4000     0.3000 ca         1 TZY      -0.140500
     14 C2          -1.9290    -1.5080     0.1970 cd         1 TZY       0.318500
     15 N6          -2.3290    -2.8110     0.4260 nd         1 TZY      -0.671000
     16 O4          -0.1760    -2.8040     0.0050 os         1 TZY      -0.349800
     17 C1          -0.5950    -1.5150    -0.0810 cd         1 TZY       0.211900
     18 C3           0.3850    -0.5130    -0.4630 cd         1 TZY      -0.161500
     19 N12          2.5870     0.2960    -0.4910 na         1 TZY      -0.092200
     20 C17          3.9330     0.4170    -0.2760 cc         1 TZY       0.328800
     21 C24          6.2190    -0.4240     0.2190 c3         1 TZY      -0.086600
     22 C23          4.4890    -0.2680     2.0460 c3         1 TZY      -0.086600
     23 N19          3.3160     2.1110    -1.4880 nd         1 TZY      -0.086000
     24 N20          4.3490     1.4980    -0.8750 nd         1 TZY      -0.351700
     25 H7           2.0650    -1.4670     0.5020 h4         1 TZY       0.176000
     26 H9          -1.1500    -4.5820     0.4210 h5         1 TZY       0.088100
     27 H13          0.6220     2.3780    -2.2820 ha         1 TZY       0.170000
     28 H21          4.4040    -1.5440     0.3220 hc         1 TZY       0.051700
     29 H8          -1.0320     0.6890    -1.5960 ha         1 TZY       0.156000
     30 H15         -6.1460     0.3050    -0.3300 ha         1 TZY       0.154000
     31 H11         -4.5150    -1.5370    -0.5050 ha         1 TZY       0.146000
     32 H14         -3.1160     2.8310     1.3390 ha         1 TZY       0.154000
     33 H10         -1.4940     0.9910     1.1910 ha         1 TZY       0.146000
     34 H241         6.7790    -1.1480     0.8100 hc         1 TZY       0.044867
     35 H242         6.4070    -0.6320    -0.8340 hc         1 TZY       0.044867
     36 H243         6.6080     0.5690     0.4440 hc         1 TZY       0.044867
     37 H231         4.8310     0.7300     2.3230 hc         1 TZY       0.044867
     38 H232         3.4350    -0.3480     2.3170 hc         1 TZY       0.044867
     39 H233         5.0370    -0.9950     2.6470 hc         1 TZY       0.044867
@<TRIPOS>BOND
     1     1    18 2   
     2     1    19 1   
     3     1    25 1   
     4     2    15 2   
     5     2    16 1   
     6     2    26 1   
     7     3     5 2   
     8     3     7 1   
     9     3    27 1   
    10     4    20 1   
    11     4    21 1   
    12     4    22 1   
    13     4    28 1   
    14     5    18 1   
    15     5    29 1   
    16     6     8 1   
    17     6     9 ar  
    18     6    11 ar  
    19     7    19 1   
    20     7    23 2   
    21     9    10 ar  
    22     9    30 1   
    23    10    13 ar  
    24    10    31 1   
    25    11    12 ar  
    26    11    32 1   
    27    12    13 ar  
    28    12    33 1   
    29    13    14 1   
    30    14    15 1   
    31    14    17 2   
    32    16    17 1   
    33    17    18 1   
    34    19    20 1   
    35    20    24 2   
    36    21    34 1   
    37    21    35 1   
    38    21    36 1   
    39    22    37 1   
    40    22    38 1   
    41    22    39 1   
    42    23    24 1   
@<TRIPOS>SUBSTRUCTURE
     1 TZY         1 TEMP              0 ****  ****    0 ROOT
