@<TRIPOS>MOLECULE
TZZ
   17    16     1     0     0
SMALL
abcg2


@<TRIPOS>ATOM
      1 C            0.0000     2.3310    -0.0520 c3         1 TZZ       0.195233
      2 O1          -0.0130     1.2010    -0.9290 os         1 TZZ      -0.596733
      3 P           -0.0120    -0.2980    -0.3800 p5         1 TZZ       1.367200
      4 O           -0.0300    -1.2430    -1.5120 o          1 TZZ      -0.555000
      5 O2           1.1940    -0.4200     0.6530 os         1 TZZ      -0.596733
      6 C1           2.5410    -0.4590     0.1660 c3         1 TZZ       0.195233
      7 O3          -1.1920    -0.4100     0.6840 os         1 TZZ      -0.596733
      8 C2          -2.5500    -0.4510     0.2320 c3         1 TZZ       0.195233
      9 H1          -0.0070     3.2170    -0.6800 h1         1 TZZ       0.043589
     10 H2          -0.8800     2.3480     0.5910 h1         1 TZZ       0.043589
     11 H3           0.8970     2.3450     0.5680 h1         1 TZZ       0.043589
     12 H11          2.6820    -1.2710    -0.5460 h1         1 TZZ       0.043589
     13 H12          2.8200     0.4850    -0.3030 h1         1 TZZ       0.043589
     14 H13          3.1800    -0.6270     1.0280 h1         1 TZZ       0.043589
     15 H21         -2.8360     0.4830    -0.2540 h1         1 TZZ       0.043589
     16 H22         -2.7130    -1.2800    -0.4570 h1         1 TZZ       0.043589
     17 H23         -3.1690    -0.5940     1.1130 h1         1 TZZ       0.043589
@<TRIPOS>BOND
     1     1     2 1   
     2     1     9 1   
     3     1    10 1   
     4     1    11 1   
     5     2     3 1   
     6     3     4 2   
     7     3     5 1   
     8     3     7 1   
     9     5     6 1   
    10     6    12 1   
    11     6    13 1   
    12     6    14 1   
    13     7     8 1   
    14     8    15 1   
    15     8    16 1   
    16     8    17 1   
@<TRIPOS>SUBSTRUCTURE
     1 TZZ         1 TEMP              0 ****  ****    0 ROOT
