@<TRIPOS>MOLECULE
TZZ
   17    16     1     0     0
SMALL
No Charge or Current Charge


@<TRIPOS>ATOM
      1 C            0.0010     2.5700     0.1130 c3         1 TZZ       0.195233
      2 O1          -0.0140     1.5240    -0.8700 os         1 TZZ      -0.596733
      3 P           -0.0110    -0.0210    -0.4010 p5         1 TZZ       1.367200
      4 O           -0.0270    -1.0370    -1.4900 o          1 TZZ      -0.555000
      5 O2           1.2620    -0.1100     0.5870 os         1 TZZ      -0.596733
      6 C1           2.4940    -0.6510     0.0920 c3         1 TZZ       0.195233
      7 O3          -1.2590    -0.1050     0.6190 os         1 TZZ      -0.596733
      8 C2          -2.5050    -0.6410     0.1560 c3         1 TZZ       0.195233
      9 H1          -0.0030     3.5520    -0.3770 h1         1 TZZ       0.043589
     10 H2          -0.8820     2.5150     0.7630 h1         1 TZZ       0.043589
     11 H3           0.8990     2.5110     0.7410 h1         1 TZZ       0.043589
     12 H11          2.3860    -1.7170    -0.1500 h1         1 TZZ       0.043589
     13 H12          2.8230    -0.1210    -0.8110 h1         1 TZZ       0.043589
     14 H13          3.2840    -0.5550     0.8480 h1         1 TZZ       0.043589
     15 H21         -2.8550    -0.1100    -0.7390 h1         1 TZZ       0.043589
     16 H22         -2.4070    -1.7070    -0.0890 h1         1 TZZ       0.043589
     17 H23         -3.2750    -0.5420     0.9310 h1         1 TZZ       0.043589
@<TRIPOS>BOND
     1     1     2 1   
     2     1     9 1   
     3     1    10 1   
     4     1    11 1   
     5     2     3 1   
     6     3     4 2   
     7     3     5 1   
     8     3     7 1   
     9     5     6 1   
    10     6    12 1   
    11     6    13 1   
    12     6    14 1   
    13     7     8 1   
    14     8    15 1   
    15     8    16 1   
    16     8    17 1   
@<TRIPOS>SUBSTRUCTURE
     1 TZZ         1 TEMP              0 ****  ****    0 ROOT
