@<TRIPOS>MOLECULE
X00
  113   118     1     0     0
SMALL
No Charge or Current Charge


@<TRIPOS>ATOM
      1 O2           6.4580     3.4990    -0.0840 o          1 X00      -0.353500
      2 C33          5.5050     2.7830    -0.3860 c          1 X00       0.351500
      3 N2           5.6420     1.3770    -0.4950 n          1 X00      -0.322500
      4 C38          4.7270     0.4810     0.2560 c6         1 X00      -0.025250
      5 C37          5.4340    -0.1450     1.4830 c6         1 X00      -0.175500
      6 C36          6.7550    -0.8500     1.0750 c6         1 X00      -0.060000
      7 C39          7.4650    -1.4850     2.2800 ca         1 X00      -0.072500
      8 C45          7.6710    -2.8790     2.3230 ca         1 X00      -0.125000
      9 C43          8.3200    -3.4780     3.4200 ca         1 X00      -0.079500
     10 C44          8.5340    -4.9830     3.4550 c3         1 X00      -0.046500
     11 N3           9.8420    -5.3580     2.9000 n8         1 X00      -0.321000
     12 C42          8.7680    -2.6740     4.4840 ca         1 X00      -0.102500
     13 C41          8.5680    -1.2840     4.4500 ca         1 X00      -0.133500
     14 C40          7.9190    -0.6910     3.3540 ca         1 X00      -0.122000
     15 C35          7.6690     0.1540     0.3230 c6         1 X00      -0.175500
     16 C34          6.9380     0.7720    -0.8940 c6         1 X00      -0.025250
     17 C3           4.2600     3.3480    -0.6430 ca         1 X00      -0.120000
     18 C2           3.8030     4.4410     0.1230 ca         1 X00      -0.086500
     19 C4           3.4460     2.8540    -1.6860 ca         1 X00      -0.061000
     20 C5           2.1810     3.4260    -1.9510 ca         1 X00      -0.452500
     21 C6           1.7590     4.5400    -1.1930 ca         1 X00      -0.064000
     22 C1           2.5550     5.0400    -0.1500 ca         1 X00      -0.208500
     23 S            1.9310     6.4480     0.7830 ss         1 X00       0.162000
     24 C            3.1730     6.7510     2.1080 c3         1 X00      -0.326500
     25 SI1          1.1720     2.8150    -3.3680 s6         1 X00       1.490000
     26 C8          -0.1830     3.8310    -3.9210 c3         1 X00      -0.635750
     27 C9           2.1580     2.2970    -4.7540 c3         1 X00      -0.635750
     28 O            0.4340     1.4060    -3.1150 os         1 X00      -0.848000
     29 SI2         -0.1150     0.9320    -1.6740 s6         1 X00       1.490000
     30 C11          1.3940     0.5670    -0.8130 c3         1 X00      -0.635750
     31 C12         -1.0140     2.3400    -1.0570 c3         1 X00      -0.635750
     32 C13         -1.1630    -0.5770    -1.9610 ca         1 X00      -0.452500
     33 C19         -2.5690    -0.4750    -2.0200 ca         1 X00      -0.061000
     34 C18         -3.3750    -1.6150    -2.2310 ca         1 X00      -0.120000
     35 C17         -2.7480    -2.8710    -2.3980 ca         1 X00      -0.086500
     36 C15         -1.3410    -2.9890    -2.3460 ca         1 X00      -0.208500
     37 S1          -0.4880    -4.5620    -2.5500 ss         1 X00       0.162000
     38 C16         -1.8160    -5.8150    -2.7900 c3         1 X00      -0.326500
     39 C14         -0.5610    -1.8420    -2.1280 ca         1 X00      -0.064000
     40 C20         -4.7610    -1.5050    -2.2860 c          1 X00       0.351500
     41 O1          -5.4040    -2.1990    -3.0710 o          1 X00      -0.353500
     42 N           -5.3990    -0.5710    -1.4300 n          1 X00      -0.322500
     43 C25         -5.1020    -0.5670     0.0260 c6         1 X00      -0.025250
     44 C24         -6.2450    -1.2330     0.8310 c6         1 X00      -0.175500
     45 C23         -7.6170    -0.5820     0.5060 c6         1 X00      -0.060000
     46 C22         -7.8690    -0.6340    -1.0250 c6         1 X00      -0.175500
     47 C21         -6.7060     0.0270    -1.8060 c6         1 X00      -0.025250
     48 C26         -8.7630    -1.2270     1.3000 ca         1 X00      -0.072500
     49 C32         -9.5130    -0.4530     2.2090 ca         1 X00      -0.125000
     50 C30        -10.5670    -1.0280     2.9460 ca         1 X00      -0.079500
     51 C31        -11.3680    -0.1830     3.9240 c3         1 X00      -0.046500
     52 N1         -12.5630     0.3920     3.2920 n8         1 X00      -0.321000
     53 C29        -10.8730    -2.3900     2.7700 ca         1 X00      -0.102500
     54 C28        -10.1310    -3.1690     1.8670 ca         1 X00      -0.133500
     55 C27         -9.0800    -2.5910     1.1360 ca         1 X00      -0.122000
     56 H1           3.8400     1.0360     0.5940 h1         1 X00       0.098625
     57 H2           4.3740    -0.3150    -0.4170 h1         1 X00       0.098625
     58 H3           5.6380     0.6430     2.2190 hc         1 X00       0.093375
     59 H4           4.7610    -0.8620     1.9730 hc         1 X00       0.093375
     60 H5           6.4950    -1.6510     0.3670 hc         1 X00       0.087500
     61 H6           7.3270    -3.5030     1.5000 ha         1 X00       0.123500
     62 H7           8.4770    -5.3470     4.4900 h1         1 X00       0.073500
     63 H8           7.7510    -5.4880     2.8730 h1         1 X00       0.073500
     64 H9           9.9390    -6.3740     2.8990 hn         1 X00       0.136750
     65 H10          9.8980    -5.0640     1.9250 hn         1 X00       0.136750
     66 H12          9.2730    -3.1270     5.3350 ha         1 X00       0.148500
     67 H13          8.9160    -0.6650     5.2750 ha         1 X00       0.130500
     68 H14          7.7710     0.3860     3.3410 ha         1 X00       0.129000
     69 H15          7.9840     0.9600     0.9990 hc         1 X00       0.093375
     70 H16          8.5870    -0.3480    -0.0110 hc         1 X00       0.093375
     71 H17          6.7480    -0.0090    -1.6450 h1         1 X00       0.098625
     72 H18          7.5790     1.5280    -1.3720 h1         1 X00       0.098625
     73 H19          4.4330     4.8170     0.9230 ha         1 X00       0.142000
     74 H20          3.8050     2.0230    -2.2930 ha         1 X00       0.135500
     75 H21          0.8090     5.0300    -1.4120 ha         1 X00       0.135000
     76 H22          3.2750     5.8530     2.7300 h1         1 X00       0.106500
     77 H23          4.1400     7.0050     1.6570 h1         1 X00       0.106500
     78 H24          2.8370     7.5870     2.7330 h1         1 X00       0.106500
     79 H25         -0.7760     4.1320    -3.0540 h1         1 X00       0.101833
     80 H26          0.2530     4.7060    -4.4140 h1         1 X00       0.101833
     81 H27         -0.7710     3.2330    -4.6260 h1         1 X00       0.101833
     82 H28          1.4660     2.0030    -5.5500 h1         1 X00       0.101833
     83 H29          2.7790     3.1480    -5.0530 h1         1 X00       0.101833
     84 H30          2.7670     1.4490    -4.4250 h1         1 X00       0.101833
     85 H31          1.7210     1.4790    -0.3050 h1         1 X00       0.101833
     86 H32          1.1600    -0.2110    -0.0790 h1         1 X00       0.101833
     87 H33          2.1250     0.2090    -1.5470 h1         1 X00       0.101833
     88 H34         -1.7240     2.6540    -1.8290 h1         1 X00       0.101833
     89 H35         -1.5540     1.9930    -0.1690 h1         1 X00       0.101833
     90 H36         -0.3130     3.1270    -0.7770 h1         1 X00       0.101833
     91 H37         -3.0070     0.5130    -1.9020 ha         1 X00       0.135500
     92 H38         -3.3700    -3.7470    -2.5620 ha         1 X00       0.142000
     93 H39         -2.4720    -5.8310    -1.9110 h1         1 X00       0.106500
     94 H40         -2.3980    -5.5680    -3.6870 h1         1 X00       0.106500
     95 H41         -1.3600    -6.8040    -2.9170 h1         1 X00       0.106500
     96 H42          0.5250    -1.8950    -2.0870 ha         1 X00       0.135000
     97 H43         -4.1580    -1.0940     0.2300 h1         1 X00       0.098625
     98 H44         -4.9700     0.4730     0.3610 h1         1 X00       0.098625
     99 H45         -6.2700    -2.3060     0.5970 hc         1 X00       0.093375
    100 H46         -6.0370    -1.1540     1.9070 hc         1 X00       0.093375
    101 H47         -7.5540     0.4780     0.7930 hc         1 X00       0.087500
    102 H48         -7.9780    -1.6750    -1.3570 hc         1 X00       0.093375
    103 H49         -8.8140    -0.1290    -1.2690 hc         1 X00       0.093375
    104 H50         -6.6790     1.1040    -1.5860 h1         1 X00       0.098625
    105 H51         -6.8740    -0.0760    -2.8880 h1         1 X00       0.098625
    106 H52         -9.2800     0.6010     2.3450 ha         1 X00       0.123500
    107 H53        -11.6860    -0.7970     4.7770 h1         1 X00       0.073500
    108 H54        -10.7470     0.6380     4.3080 h1         1 X00       0.073500
    109 H55        -13.0560     0.9860     3.9590 hn         1 X00       0.136750
    110 H56        -12.2850     0.9990     2.5200 hn         1 X00       0.136750
    111 H58        -11.6870    -2.8430     3.3330 ha         1 X00       0.148500
    112 H59        -10.3710    -4.2230     1.7340 ha         1 X00       0.130500
    113 H60         -8.5140    -3.2060     0.4400 ha         1 X00       0.129000
@<TRIPOS>BOND
     1     1     2 1   
     2     2     3 1   
     3     2    17 1   
     4     3     4 1   
     5     3    16 1   
     6     4     5 1   
     7     4    56 1   
     8     4    57 1   
     9     5     6 1   
    10     5    58 1   
    11     5    59 1   
    12     6     7 1   
    13     6    15 1   
    14     6    60 1   
    15     7     8 ar  
    16     7    14 ar  
    17     8     9 ar  
    18     8    61 1   
    19     9    10 1   
    20     9    12 ar  
    21    10    11 1   
    22    10    62 1   
    23    10    63 1   
    24    11    64 1   
    25    11    65 1   
    26    12    13 ar  
    27    12    66 1   
    28    13    14 ar  
    29    13    67 1   
    30    14    68 1   
    31    15    16 1   
    32    15    69 1   
    33    15    70 1   
    34    16    71 1   
    35    16    72 1   
    36    17    18 ar  
    37    17    19 ar  
    38    18    22 ar  
    39    18    73 1   
    40    19    20 ar  
    41    19    74 1   
    42    20    21 ar  
    43    20    25 1   
    44    21    22 ar  
    45    21    75 1   
    46    22    23 1   
    47    23    24 1   
    48    24    76 1   
    49    24    77 1   
    50    24    78 1   
    51    25    26 1   
    52    25    27 1   
    53    25    28 1   
    54    26    79 1   
    55    26    80 1   
    56    26    81 1   
    57    27    82 1   
    58    27    83 1   
    59    27    84 1   
    60    28    29 1   
    61    29    30 1   
    62    29    31 1   
    63    29    32 1   
    64    30    85 1   
    65    30    86 1   
    66    30    87 1   
    67    31    88 1   
    68    31    89 1   
    69    31    90 1   
    70    32    33 ar  
    71    32    39 ar  
    72    33    34 ar  
    73    33    91 1   
    74    34    35 ar  
    75    34    40 1   
    76    35    36 ar  
    77    35    92 1   
    78    36    37 1   
    79    36    39 ar  
    80    37    38 1   
    81    38    93 1   
    82    38    94 1   
    83    38    95 1   
    84    39    96 1   
    85    40    41 1   
    86    40    42 1   
    87    42    43 1   
    88    42    47 1   
    89    43    44 1   
    90    43    97 1   
    91    43    98 1   
    92    44    45 1   
    93    44    99 1   
    94    44   100 1   
    95    45    46 1   
    96    45    48 1   
    97    45   101 1   
    98    46    47 1   
    99    46   102 1   
   100    46   103 1   
   101    47   104 1   
   102    47   105 1   
   103    48    49 ar  
   104    48    55 ar  
   105    49    50 ar  
   106    49   106 1   
   107    50    51 1   
   108    50    53 ar  
   109    51    52 1   
   110    51   107 1   
   111    51   108 1   
   112    52   109 1   
   113    52   110 1   
   114    53    54 ar  
   115    53   111 1   
   116    54    55 ar  
   117    54   112 1   
   118    55   113 1   
@<TRIPOS>SUBSTRUCTURE
     1 X00         1 TEMP              0 ****  ****    0 ROOT
