@<TRIPOS>MOLECULE
X00
  113   118     1     0     0
SMALL
abcg2


@<TRIPOS>ATOM
      1 O2           7.0440     3.3030    -1.5880 o          1 X00      -0.353500
      2 C33          6.0820     2.5760    -1.3740 c2         1 X00       0.351500
      3 N2           6.1490     1.2300    -1.3850 n          1 X00      -0.322500
      4 C38          5.1730     0.3550    -0.7550 c6         1 X00      -0.025250
      5 C37          5.7340    -0.2270     0.5380 c6         1 X00      -0.175500
      6 C36          7.0600    -0.9530     0.2890 c6         1 X00      -0.060000
      7 C39          7.6310    -1.5370     1.5550 ca         1 X00      -0.072500
      8 C45          7.6970    -2.9190     1.7210 ca         1 X00      -0.125000
      9 C43          8.2120    -3.5000     2.8760 ca         1 X00      -0.079500
     10 C44          8.2380    -4.9990     3.0300 c3         1 X00      -0.046500
     11 N3           9.5110    -5.4640     3.5540 n8         1 X00      -0.321000
     12 C42          8.6860    -2.6670     3.8860 ca         1 X00      -0.102500
     13 C41          8.6230    -1.2890     3.7400 ca         1 X00      -0.133500
     14 C40          8.0980    -0.7250     2.5850 ca         1 X00      -0.122000
     15 C35          8.0370    -0.0170    -0.4260 c6         1 X00      -0.175500
     16 C34          7.4050     0.5610    -1.6860 c6         1 X00      -0.025250
     17 C3           4.7390     3.2000    -1.1390 ca         1 X00      -0.120000
     18 C2           4.6100     4.1420    -0.1240 ca         1 X00      -0.086500
     19 C4           3.6710     2.9310    -1.9850 ca         1 X00      -0.061000
     20 C5           2.4520     3.5950    -1.8270 ca         1 X00      -0.452500
     21 C6           2.3330     4.5230    -0.7980 ca         1 X00      -0.064000
     22 C1           3.3980     4.7970     0.0640 ca         1 X00      -0.208500
     23 S            3.1110     5.9860     1.3290 ss         1 X00       0.162000
     24 C            4.6040     5.9090     2.3330 c3         1 X00      -0.326500
     25 SI1          0.9670     3.1370    -2.8920 s6         1 X00       1.490000
     26 C8          -0.2410     4.5650    -2.9660 c3         1 X00      -0.635750
     27 C9           1.5260     2.6270    -4.6000 c3         1 X00      -0.635750
     28 O            0.2370     1.8140    -2.1830 os         1 X00      -0.848000
     29 SI2         -0.1150     1.3030    -0.6370 s6         1 X00       1.490000
     30 C11          1.4420     0.7830     0.2630 c3         1 X00      -0.635750
     31 C12         -1.0080     2.6600     0.2970 c3         1 X00      -0.635750
     32 C13         -1.2630    -0.1720    -0.8490 ca         1 X00      -0.452500
     33 C19         -2.5410     0.0030    -1.3870 ca         1 X00      -0.061000
     34 C18         -3.3850    -1.0830    -1.5680 ca         1 X00      -0.120000
     35 C17         -2.9680    -2.3640    -1.2180 ca         1 X00      -0.086500
     36 C15         -1.7140    -2.5530    -0.6510 ca         1 X00      -0.208500
     37 S1          -1.0910    -4.1160    -0.1380 ss         1 X00       0.162000
     38 C16         -2.4940    -5.2270    -0.3410 c3         1 X00      -0.326500
     39 C14         -0.8700    -1.4520    -0.4770 ca         1 X00      -0.064000
     40 C20         -4.7170    -0.9340    -2.2400 c2         1 X00       0.351500
     41 O1          -4.9220    -1.5310    -3.2880 o          1 X00      -0.353500
     42 N           -5.6190    -0.1160    -1.6610 n          1 X00      -0.322500
     43 C25         -5.5890     0.2690    -0.2570 c6         1 X00      -0.025250
     44 C24         -6.5620    -0.5860     0.5460 c6         1 X00      -0.175500
     45 C23         -7.9790    -0.5030    -0.0290 c6         1 X00      -0.060000
     46 C22         -7.9610    -0.8200    -1.5290 c6         1 X00      -0.175500
     47 C21         -6.9370     0.0420    -2.2570 c6         1 X00      -0.025250
     48 C26         -8.9530    -1.3790     0.7180 ca         1 X00      -0.072500
     49 C32        -10.0870    -0.8310     1.3080 ca         1 X00      -0.125000
     50 C30        -11.0140    -1.6110     1.9960 ca         1 X00      -0.079500
     51 C31        -12.2020    -0.9550     2.6560 c3         1 X00      -0.046500
     52 N1         -13.3430    -1.8460     2.7570 n8         1 X00      -0.321000
     53 C29        -10.7970    -2.9820     2.0820 ca         1 X00      -0.102500
     54 C28         -9.6720    -3.5470     1.4940 ca         1 X00      -0.133500
     55 C27         -8.7550    -2.7560     0.8190 ca         1 X00      -0.122000
     56 H1           4.2550     0.8970    -0.5510 h1         1 X00       0.098625
     57 H2           4.9250    -0.4520    -1.4510 h1         1 X00       0.098625
     58 H3           5.8730     0.5790     1.2650 hc         1 X00       0.093375
     59 H4           5.0020    -0.9170     0.9640 hc         1 X00       0.093375
     60 H5           6.8500    -1.7860    -0.3930 hc         1 X00       0.087500
     61 H6           7.3400    -3.5600     0.9210 ha         1 X00       0.123500
     62 H7           7.4600    -5.2910     3.7430 h1         1 X00       0.073500
     63 H8           7.9540    -5.4560     2.0730 h1         1 X00       0.073500
     64 H9           9.4590    -6.4590     3.7270 hn         1 X00       0.136750
     65 H10         10.2300    -5.3400     2.8510 hn         1 X00       0.136750
     66 H12          9.1060    -3.1000     4.7850 ha         1 X00       0.148500
     67 H13          8.9890    -0.6480     4.5330 ha         1 X00       0.130500
     68 H14          8.0600     0.3540     2.4890 ha         1 X00       0.129000
     69 H15          8.3380     0.8040     0.2310 hc         1 X00       0.093375
     70 H16          8.9460    -0.5580    -0.6980 hc         1 X00       0.093375
     71 H17          7.1920    -0.2420    -2.3980 h1         1 X00       0.098625
     72 H18          8.0800     1.2570    -2.1780 h1         1 X00       0.098625
     73 H19          5.4570     4.3490     0.5150 ha         1 X00       0.142000
     74 H20          3.7940     2.1960    -2.7720 ha         1 X00       0.135500
     75 H21          1.3940     5.0480    -0.6500 ha         1 X00       0.135000
     76 H22          4.7670     4.9070     2.7280 h1         1 X00       0.106500
     77 H23          5.4840     6.2420     1.7850 h1         1 X00       0.106500
     78 H24          4.4380     6.5880     3.1670 h1         1 X00       0.106500
     79 H25         -0.5750     4.8890    -1.9790 h1         1 X00       0.101833
     80 H26          0.2070     5.4280    -3.4620 h1         1 X00       0.101833
     81 H27         -1.1290     4.2820    -3.5340 h1         1 X00       0.101833
     82 H28          0.6730     2.3340    -5.2160 h1         1 X00       0.101833
     83 H29          2.0270     3.4550    -5.1040 h1         1 X00       0.101833
     84 H30          2.2180     1.7840    -4.5770 h1         1 X00       0.101833
     85 H31          2.1360     1.6220     0.3450 h1         1 X00       0.101833
     86 H32          1.2150     0.4430     1.2750 h1         1 X00       0.101833
     87 H33          1.9620    -0.0270    -0.2520 h1         1 X00       0.101833
     88 H34         -1.9230     2.9680    -0.2120 h1         1 X00       0.101833
     89 H35         -1.2860     2.3160     1.2950 h1         1 X00       0.101833
     90 H36         -0.3830     3.5470     0.4210 h1         1 X00       0.101833
     91 H37         -2.8840     0.9910    -1.6750 ha         1 X00       0.135500
     92 H38         -3.6350    -3.1990    -1.3850 ha         1 X00       0.142000
     93 H39         -3.3490    -4.9020     0.2490 h1         1 X00       0.106500
     94 H40         -2.7810    -5.3380    -1.3850 h1         1 X00       0.106500
     95 H41         -2.1630    -6.1940     0.0320 h1         1 X00       0.106500
     96 H42          0.1110    -1.6110    -0.0430 ha         1 X00       0.135000
     97 H43         -4.5830     0.1760     0.1430 h1         1 X00       0.098625
     98 H44         -5.8670     1.3250    -0.1860 h1         1 X00       0.098625
     99 H45         -6.2100    -1.6230     0.5400 hc         1 X00       0.093375
    100 H46         -6.5590    -0.2540     1.5860 hc         1 X00       0.093375
    101 H47         -8.3140     0.5360     0.0820 hc         1 X00       0.087500
    102 H48         -7.7200    -1.8750    -1.6890 hc         1 X00       0.093375
    103 H49         -8.9510    -0.6470    -1.9580 hc         1 X00       0.093375
    104 H50         -7.2130     1.0980    -2.1800 h1         1 X00       0.098625
    105 H51         -6.8950    -0.2080    -3.3130 h1         1 X00       0.098625
    106 H52        -10.2560     0.2380     1.2260 ha         1 X00       0.123500
    107 H53        -11.9140    -0.6640     3.6710 h1         1 X00       0.073500
    108 H54        -12.4170    -0.0140     2.1310 h1         1 X00       0.073500
    109 H55        -14.0660    -1.4040     3.3090 hn         1 X00       0.136750
    110 H56        -13.7410    -1.9930     1.8380 hn         1 X00       0.136750
    111 H58        -11.5110    -3.6050     2.6040 ha         1 X00       0.148500
    112 H59         -9.5090    -4.6160     1.5640 ha         1 X00       0.130500
    113 H60         -7.8860    -3.2190     0.3670 ha         1 X00       0.129000
@<TRIPOS>BOND
     1     1     2 1   
     2     2     3 1   
     3     2    17 1   
     4     3     4 1   
     5     3    16 1   
     6     4     5 1   
     7     4    56 1   
     8     4    57 1   
     9     5     6 1   
    10     5    58 1   
    11     5    59 1   
    12     6     7 1   
    13     6    15 1   
    14     6    60 1   
    15     7     8 1   
    16     7    14 1   
    17     8     9 1   
    18     8    61 1   
    19     9    10 1   
    20     9    12 1   
    21    10    11 1   
    22    10    62 1   
    23    10    63 1   
    24    11    64 1   
    25    11    65 1   
    26    12    13 1   
    27    12    66 1   
    28    13    14 1   
    29    13    67 1   
    30    14    68 1   
    31    15    16 1   
    32    15    69 1   
    33    15    70 1   
    34    16    71 1   
    35    16    72 1   
    36    17    18 1   
    37    17    19 1   
    38    18    22 1   
    39    18    73 1   
    40    19    20 1   
    41    19    74 1   
    42    20    21 1   
    43    20    25 1   
    44    21    22 1   
    45    21    75 1   
    46    22    23 1   
    47    23    24 1   
    48    24    76 1   
    49    24    77 1   
    50    24    78 1   
    51    25    26 1   
    52    25    27 1   
    53    25    28 1   
    54    26    79 1   
    55    26    80 1   
    56    26    81 1   
    57    27    82 1   
    58    27    83 1   
    59    27    84 1   
    60    28    29 1   
    61    29    30 1   
    62    29    31 1   
    63    29    32 1   
    64    30    85 1   
    65    30    86 1   
    66    30    87 1   
    67    31    88 1   
    68    31    89 1   
    69    31    90 1   
    70    32    33 1   
    71    32    39 1   
    72    33    34 1   
    73    33    91 1   
    74    34    35 1   
    75    34    40 1   
    76    35    36 1   
    77    35    92 1   
    78    36    37 1   
    79    36    39 1   
    80    37    38 1   
    81    38    93 1   
    82    38    94 1   
    83    38    95 1   
    84    39    96 1   
    85    40    41 1   
    86    40    42 1   
    87    42    43 1   
    88    42    47 1   
    89    43    44 1   
    90    43    97 1   
    91    43    98 1   
    92    44    45 1   
    93    44    99 1   
    94    44   100 1   
    95    45    46 1   
    96    45    48 1   
    97    45   101 1   
    98    46    47 1   
    99    46   102 1   
   100    46   103 1   
   101    47   104 1   
   102    47   105 1   
   103    48    49 1   
   104    48    55 1   
   105    49    50 1   
   106    49   106 1   
   107    50    51 1   
   108    50    53 1   
   109    51    52 1   
   110    51   107 1   
   111    51   108 1   
   112    52   109 1   
   113    52   110 1   
   114    53    54 1   
   115    53   111 1   
   116    54    55 1   
   117    54   112 1   
   118    55   113 1   
@<TRIPOS>SUBSTRUCTURE
     1 X00         1 TEMP              0 ****  ****    0 ROOT
