@<TRIPOS>MOLECULE
X01
   23    24     1     0     0
SMALL
No Charge or Current Charge


@<TRIPOS>ATOM
      1 N01         -1.9190    -1.3390     0.0270 nb         1 X01      -0.333000
      2 N02         -1.5510     1.0020    -0.0370 nb         1 X01      -0.293000
      3 N03         -3.7840     0.1560    -0.0430 nb         1 X01      -0.287000
      4 N05          4.2030     2.6090    -0.1190 n1         1 X01      -0.465000
      5 C06          2.6820     0.4990    -0.0090 ca         1 X01      -0.096000
      6 C07          3.2530    -0.7790     0.0700 ca         1 X01      -0.002000
      7 C09          2.4210    -1.9040     0.1290 ca         1 X01      -0.191000
      8 C10          1.0260    -1.7690     0.1090 ca         1 X01       0.246100
      9 C11          0.4070    -0.4840     0.0300 cp         1 X01      -0.300500
     10 C12          1.2820     0.6430    -0.0280 ca         1 X01       0.028000
     11 C13         -1.0930    -0.2680     0.0060 cp         1 X01       0.289500
     12 C14         -2.8820     1.1430    -0.0610 ca         1 X01       0.423900
     13 C15         -3.2440    -1.0770     0.0010 ca         1 X01       0.215900
     14 C16          3.5250     1.6600    -0.0700 cg         1 X01       0.335000
     15 HN04        -2.7240     3.1670     0.1260 hn         1 X01       0.514500
     16 HN0A        -4.3420     2.5580     0.1200 hn         1 X01       0.514500
     17 H07          4.3350    -0.9020     0.0860 ha         1 X01       0.127000
     18 H09          2.8640    -2.8950     0.1900 ha         1 X01       0.138000
     19 H12          0.8770     1.6520    -0.0910 ha         1 X01       0.143000
     20 H15         -3.9270    -1.9250     0.0170 h5         1 X01       0.054100
     21 HO17        -0.6450    -2.6410     0.1380 ho         1 X01       0.533000
     22 N04         -3.3610     2.4060    -0.1020 nv         1 X01      -1.050900
     23 O17          0.3010    -2.9140     0.1710 oh         1 X01      -0.544100
@<TRIPOS>BOND
     1     1    11 ar  
     2     1    13 ar  
     3     2    11 ar  
     4     2    12 ar  
     5     3    12 ar  
     6     3    13 ar  
     7     4    14 3   
     8     5     6 ar  
     9     5    10 ar  
    10     5    14 1   
    11     6     7 ar  
    12     6    17 1   
    13     7     8 ar  
    14     7    18 1   
    15     8     9 ar  
    16     8    23 1   
    17     9    10 ar  
    18     9    11 1   
    19    10    19 1   
    20    12    22 1   
    21    13    20 1   
    22    15    22 1   
    23    16    22 1   
    24    21    23 1   
@<TRIPOS>SUBSTRUCTURE
     1 X01         1 TEMP              0 ****  ****    0 ROOT
