@<TRIPOS>MOLECULE
X01
   23    24     1     0     0
SMALL
bcc


@<TRIPOS>ATOM
      1 N01         -1.8180    -1.3140     0.0750 nb         1 X01      -0.859000
      2 N02         -1.5000     1.0080    -0.0070 nb         1 X01      -0.819000
      3 N03         -3.6920     0.0980     0.0290 nb         1 X01      -0.813000
      4 N05          4.1900     2.5550    -0.0400 n1         1 X01      -0.375800
      5 C06          2.6420     0.4960     0.0130 ca         1 X01      -0.096000
      6 C07          3.1890    -0.7950     0.0460 ca         1 X01      -0.020000
      7 C09          2.3640    -1.8910     0.0750 ca         1 X01      -0.209000
      8 C10          0.9690    -1.7400     0.0730 ca         1 X01       0.246100
      9 C11          0.4130    -0.4390     0.0390 cp         1 X01      -0.300500
     10 C12          1.2660     0.6590     0.0100 ca         1 X01       0.010000
     11 C13         -1.0410    -0.2240     0.0350 cp         1 X01       0.815500
     12 C14         -2.8330     1.1350    -0.0100 ca         1 X01       0.949900
     13 C15         -3.1260    -1.0810     0.0710 ca         1 X01       0.741900
     14 C16          3.4950     1.6350    -0.0160 cg         1 X01       0.245800
     15 HN04        -2.7450     3.1640    -0.0770 hn         1 X01       0.459300
     16 HN0A        -4.3410     2.4930    -0.0480 hn         1 X01       0.459300
     17 H07          4.2630    -0.9280     0.0480 ha         1 X01       0.145000
     18 H09          2.7810    -2.8890     0.1000 ha         1 X01       0.156000
     19 H12          0.8390     1.6530    -0.0160 ha         1 X01       0.161000
     20 H15         -3.7760    -1.9480     0.1050 h5         1 X01       0.054100
     21 HO17        -0.7240    -2.5670     0.1040 ho         1 X01       0.494000
     22 N04         -3.3440     2.3570    -0.0550 nv         1 X01      -0.940500
     23 O17          0.2370    -2.8380     0.1050 oh         1 X01      -0.505100
@<TRIPOS>BOND
     1     1    11 ar  
     2     1    13 ar  
     3     2    11 ar  
     4     2    12 ar  
     5     3    12 ar  
     6     3    13 ar  
     7     4    14 3   
     8     5     6 ar  
     9     5    10 ar  
    10     5    14 1   
    11     6     7 ar  
    12     6    17 1   
    13     7     8 ar  
    14     7    18 1   
    15     8     9 ar  
    16     8    23 1   
    17     9    10 ar  
    18     9    11 1   
    19    10    19 1   
    20    12    22 1   
    21    13    20 1   
    22    15    22 1   
    23    16    22 1   
    24    21    23 1   
@<TRIPOS>SUBSTRUCTURE
     1 X01         1 TEMP              0 ****  ****    0 ROOT
