@<TRIPOS>MOLECULE
X02
   31    32     1     0     0
SMALL
abcg2


@<TRIPOS>ATOM
      1 C1           6.1690    -1.0900     0.3890 c2         1 X02      -0.304000
      2 C2           5.0230    -0.4310     0.2790 c2         1 X02      -0.247200
      3 C3           4.3550    -0.1300    -1.0300 c3         1 X02       0.258000
      4 N4           3.0000    -0.6480    -1.0910 nu         1 X02      -0.910100
      5 C5           1.9580     0.0000    -0.5800 cc         1 X02       0.774300
      6 N6           2.0470     1.1890    -0.0380 nd         1 X02      -0.824000
      7 C7           0.8360     1.6280     0.3730 cd         1 X02       0.698900
      8 C8          -0.2450     0.7490     0.1780 cc         1 X02      -0.471600
      9 S9           0.3670    -0.7020    -0.6150 ss         1 X02      -0.096400
     10 N10          0.7450     2.8320     0.9320 nv         1 X02      -1.051900
     11 C11         -1.6030     1.0190     0.4760 c          1 X02       0.646300
     12 C12         -2.6200    -0.0480     0.2320 ca         1 X02      -0.145600
     13 C13         -3.8050     0.2860    -0.4220 ca         1 X02      -0.075500
     14 C14         -4.7780    -0.6760    -0.6450 ca         1 X02      -0.120000
     15 C15         -4.5900    -1.9760    -0.1910 ca         1 X02      -0.098000
     16 C16         -3.4260    -2.3080     0.4870 ca         1 X02      -0.120000
     17 C17         -2.4410    -1.3510     0.6920 ca         1 X02      -0.075500
     18 O18         -1.9810     2.1160     0.9100 o          1 X02      -0.605100
     19 H1           6.6260    -1.2730     1.3520 ha         1 X02       0.163500
     20 H1A          6.6980    -1.4650    -0.4800 ha         1 X02       0.163500
     21 H2           4.5170    -0.0670     1.1680 ha         1 X02       0.188000
     22 H3           4.3180     0.9470    -1.1990 h1         1 X02       0.066200
     23 H3A          4.9120    -0.5710    -1.8560 h1         1 X02       0.066200
     24 HN4          2.8780    -1.5950    -1.4110 hn         1 X02       0.505000
     25 HN10         1.5650     3.4060     1.0220 hn         1 X02       0.516500
     26 HN1A        -0.1560     3.1970     1.1910 hn         1 X02       0.516500
     27 H13         -3.9610     1.3000    -0.7700 ha         1 X02       0.122500
     28 H14         -5.6860    -0.4100    -1.1710 ha         1 X02       0.112500
     29 H15         -5.3520    -2.7250    -0.3600 ha         1 X02       0.111000
     30 H16         -3.2830    -3.3140     0.8620 ha         1 X02       0.112500
     31 H17         -1.5480    -1.6200     1.2420 ha         1 X02       0.122500
@<TRIPOS>BOND
     1     1     2 2   
     2     1    19 1   
     3     1    20 1   
     4     2     3 1   
     5     2    21 1   
     6     3     4 1   
     7     3    22 1   
     8     3    23 1   
     9     4     5 1   
    10     4    24 1   
    11     5     6 2   
    12     5     9 1   
    13     6     7 1   
    14     7     8 2   
    15     7    10 1   
    16     8     9 1   
    17     8    11 1   
    18    10    25 1   
    19    10    26 1   
    20    11    12 1   
    21    11    18 2   
    22    12    13 ar  
    23    12    17 ar  
    24    13    14 ar  
    25    13    27 1   
    26    14    15 ar  
    27    14    28 1   
    28    15    16 ar  
    29    15    29 1   
    30    16    17 ar  
    31    16    30 1   
    32    17    31 1   
@<TRIPOS>SUBSTRUCTURE
     1 X02         1 TEMP              0 ****  ****    0 ROOT
