@<TRIPOS>MOLECULE
X02
   31    32     1     0     0
SMALL
No Charge or Current Charge


@<TRIPOS>ATOM
      1 C1           5.9400    -1.6010    -0.8950 c2         1 X02      -0.304000
      2 C2           5.4960    -1.0540     0.2520 c2         1 X02      -0.247200
      3 C3           4.4520     0.0300     0.3650 c3         1 X02       0.258000
      4 N4           3.1710    -0.5530    -0.0200 nu         1 X02      -0.910100
      5 C5           1.9820     0.0950    -0.1320 cc         1 X02       0.774300
      6 N6           1.8970     1.3510     0.2370 nd         1 X02      -0.824000
      7 C7           0.6220     1.7560     0.0400 cd         1 X02       0.698900
      8 C8          -0.2500     0.8820    -0.5240 cc         1 X02      -0.471600
      9 S9           0.5290    -0.6650    -0.7370 ss         1 X02      -0.096400
     10 N10          0.3960     2.9910     0.4320 nv         1 X02      -1.051900
     11 C11         -1.6930     1.1470    -0.6290 c          1 X02       0.646300
     12 C12         -2.6520     0.0540    -0.2090 ca         1 X02      -0.145600
     13 C13         -3.9390     0.0050    -0.7900 ca         1 X02      -0.075500
     14 C14         -4.8600    -0.9880    -0.4130 ca         1 X02      -0.120000
     15 C15         -4.5120    -1.9370     0.5610 ca         1 X02      -0.098000
     16 C16         -3.2450    -1.8860     1.1640 ca         1 X02      -0.120000
     17 C17         -2.3220    -0.8950     0.7870 ca         1 X02      -0.075500
     18 O18         -2.1090     2.2670    -0.9040 o          1 X02      -0.605100
     19 H1           6.7020    -2.3820    -0.8990 ha         1 X02       0.163500
     20 H1A          5.5590    -1.2840    -1.8680 ha         1 X02       0.163500
     21 H2           5.8940    -1.3830     1.2140 ha         1 X02       0.188000
     22 H3           4.4090     0.4080     1.3970 h1         1 X02       0.066200
     23 H3A          4.7100     0.8710    -0.2940 h1         1 X02       0.066200
     24 HN4          3.1700    -1.4990    -0.3870 hn         1 X02       0.505000
     25 HN10         1.2320     3.5540     0.5190 hn         1 X02       0.516500
     26 HN1A        -0.4060     3.4400     0.0030 hn         1 X02       0.516500
     27 H13         -4.2240     0.7350    -1.5460 ha         1 X02       0.122500
     28 H14         -5.8440    -1.0200    -0.8750 ha         1 X02       0.112500
     29 H15         -5.2250    -2.7040     0.8540 ha         1 X02       0.111000
     30 H16         -2.9790    -2.6110     1.9300 ha         1 X02       0.112500
     31 H17         -1.3610    -0.8560     1.2940 ha         1 X02       0.122500
@<TRIPOS>BOND
     1     1     2 2   
     2     1    19 1   
     3     1    20 1   
     4     2     3 1   
     5     2    21 1   
     6     3     4 1   
     7     3    22 1   
     8     3    23 1   
     9     4     5 1   
    10     4    24 1   
    11     5     6 2   
    12     5     9 1   
    13     6     7 1   
    14     7     8 2   
    15     7    10 1   
    16     8     9 1   
    17     8    11 1   
    18    10    25 1   
    19    10    26 1   
    20    11    12 1   
    21    11    18 2   
    22    12    13 ar  
    23    12    17 ar  
    24    13    14 ar  
    25    13    27 1   
    26    14    15 ar  
    27    14    28 1   
    28    15    16 ar  
    29    15    29 1   
    30    16    17 ar  
    31    16    30 1   
    32    17    31 1   
@<TRIPOS>SUBSTRUCTURE
     1 X02         1 TEMP              0 ****  ****    0 ROOT
