@<TRIPOS>MOLECULE
X03
   40    41     1     0     0
SMALL
No Charge or Current Charge


@<TRIPOS>ATOM
      1 N1           2.8850    -1.5380    -0.2060 nc         1 X03      -0.530800
      2 N2           1.8810    -2.4960    -0.1770 na         1 X03       0.018800
      3 C3           0.6100    -1.9460    -0.0840 cc         1 X03      -0.163300
      4 C4           0.8180    -0.6050    -0.0650 cd         1 X03      -0.128300
      5 C5           2.2220    -0.3790    -0.1330 cd         1 X03       0.197500
      6 C6           2.9160     0.9660    -0.1200 c          1 X03       0.553600
      7 N7           4.3120     0.8650    -0.2030 ns         1 X03      -0.403300
      8 N8           5.2450     1.9910    -0.2110 n8         1 X03      -0.719200
      9 O9           2.3480     2.0520    -0.0430 o          1 X03      -0.568100
     10 C10         -0.7290    -2.6240    -0.0200 c6         1 X03      -0.009100
     11 C11         -1.7950    -1.6230     0.5020 c6         1 X03      -0.068400
     12 C12         -1.7120    -0.2280    -0.2200 c6         1 X03      -0.054700
     13 C13         -0.2980     0.4150     0.0350 c6         1 X03       0.005900
     14 C14         -2.9430     0.7450     0.0820 c3         1 X03      -0.034000
     15 C15         -4.2750     0.1000    -0.4570 c3         1 X03      -0.069400
     16 C16         -5.5700     0.9480    -0.3880 c3         1 X03      -0.088100
     17 C17         -3.0910     1.0240     1.6090 c3         1 X03      -0.085600
     18 C18         -2.7290     2.1130    -0.6370 c3         1 X03      -0.085600
     19 HN2          2.0990    -3.4910    -0.2190 hn         1 X03       0.371000
     20 HN7          4.6710    -0.0910    -0.2610 hn         1 X03       0.319500
     21 HN8          5.9070     1.9370     0.5780 hn         1 X03       0.396000
     22 HN8A         5.8140     2.0020    -1.0710 hn         1 X03       0.396000
     23 H10         -1.0190    -2.9820    -1.0170 hc         1 X03       0.051700
     24 H10A        -0.6970    -3.5080     0.6330 hc         1 X03       0.051700
     25 H11         -2.7780    -2.0900     0.3770 hc         1 X03       0.047700
     26 H11A        -1.6540    -1.4860     1.5820 hc         1 X03       0.047700
     27 H12         -1.7640    -0.4320    -1.2990 hc         1 X03       0.045700
     28 H13         -0.2590     0.8860     1.0250 hc         1 X03       0.066200
     29 H13A        -0.1210     1.2130    -0.6970 hc         1 X03       0.066200
     30 H15         -4.1290    -0.2020    -1.5020 hc         1 X03       0.034700
     31 H15A        -4.4870    -0.8200     0.0970 hc         1 X03       0.034700
     32 H16         -5.5160     1.8220    -1.0460 hc         1 X03       0.031700
     33 H16A        -6.4240     0.3460    -0.7180 hc         1 X03       0.031700
     34 H16B        -5.7800     1.2850     0.6330 hc         1 X03       0.031700
     35 H17         -2.1660     1.4230     2.0400 hc         1 X03       0.035033
     36 H17A        -3.8750     1.7640     1.8050 hc         1 X03       0.035033
     37 H17B        -3.3530     0.1120     2.1570 hc         1 X03       0.035033
     38 H18         -2.6190     1.9750    -1.7200 hc         1 X03       0.035033
     39 H18A        -3.5660     2.7990    -0.4650 hc         1 X03       0.035033
     40 H18B        -1.8380     2.6310    -0.2650 hc         1 X03       0.035033
@<TRIPOS>BOND
     1     1     2 1   
     2     1     5 2   
     3     2     3 1   
     4     2    19 1   
     5     3     4 2   
     6     3    10 1   
     7     4     5 1   
     8     4    13 1   
     9     5     6 1   
    10     6     7 1   
    11     6     9 2   
    12     7     8 1   
    13     7    20 1   
    14     8    21 1   
    15     8    22 1   
    16    10    11 1   
    17    10    23 1   
    18    10    24 1   
    19    11    12 1   
    20    11    25 1   
    21    11    26 1   
    22    12    13 1   
    23    12    14 1   
    24    12    27 1   
    25    13    28 1   
    26    13    29 1   
    27    14    15 1   
    28    14    17 1   
    29    14    18 1   
    30    15    16 1   
    31    15    30 1   
    32    15    31 1   
    33    16    32 1   
    34    16    33 1   
    35    16    34 1   
    36    17    35 1   
    37    17    36 1   
    38    17    37 1   
    39    18    38 1   
    40    18    39 1   
    41    18    40 1   
@<TRIPOS>SUBSTRUCTURE
     1 X03         1 TEMP              0 ****  ****    0 ROOT
