@<TRIPOS>MOLECULE
X03
   40    41     1     0     0
SMALL
bcc


@<TRIPOS>ATOM
      1 N1           2.7800    -1.5050    -0.1970 nc         1 X03      -0.530800
      2 N2           1.8070    -2.3950    -0.1560 na         1 X03       0.018400
      3 C3           0.5860    -1.8380    -0.0450 cc         1 X03      -0.112600
      4 C4           0.7770    -0.4770    -0.0120 cd         1 X03      -0.193600
      5 C5           2.1750    -0.3270    -0.1100 cd         1 X03       0.262800
      6 C6           2.9430     0.9390    -0.1160 c          1 X03       0.620600
      7 N7           4.2660     0.7810    -0.3070 ns         1 X03      -0.470300
      8 N8           5.1220     1.8660    -0.3190 n8         1 X03      -0.608800
      9 O9           2.3860     2.0150     0.0400 o          1 X03      -0.568100
     10 C10         -0.7250    -2.5300     0.0400 c6         1 X03      -0.009100
     11 C11         -1.7540    -1.5310     0.5700 c6         1 X03      -0.068400
     12 C12         -1.6980    -0.1910    -0.1800 c6         1 X03      -0.054700
     13 C13         -0.3480     0.5010     0.0800 c6         1 X03       0.005900
     14 C14         -2.9220     0.7280     0.0990 c3         1 X03      -0.034000
     15 C15         -4.1660     0.0840    -0.5470 c3         1 X03      -0.069400
     16 C16         -5.4590     0.8890    -0.4820 c3         1 X03      -0.088100
     17 C17         -3.1440     0.9070     1.6030 c3         1 X03      -0.085600
     18 C18         -2.6860     2.1040    -0.5310 c3         1 X03      -0.085600
     19 HN2          2.0290    -3.3780    -0.2040 hn         1 X03       0.320700
     20 HN7          4.6330    -0.1540    -0.4160 hn         1 X03       0.319500
     21 HN8          5.7980     1.7630     0.4270 hn         1 X03       0.340800
     22 HN8A         5.6330     1.8730    -1.1920 hn         1 X03       0.340800
     23 H10         -1.0270    -2.8930    -0.9480 hc         1 X03       0.051700
     24 H10A        -0.6680    -3.4050     0.6910 hc         1 X03       0.051700
     25 H11         -2.7430    -1.9850     0.4950 hc         1 X03       0.047700
     26 H11A        -1.5700    -1.3640     1.6360 hc         1 X03       0.047700
     27 H12         -1.7300    -0.4210    -1.2550 hc         1 X03       0.045700
     28 H13         -0.3450     0.9840     1.0620 hc         1 X03       0.066200
     29 H13A        -0.1920     1.2990    -0.6460 hc         1 X03       0.066200
     30 H15         -3.9390    -0.1330    -1.5970 hc         1 X03       0.034700
     31 H15A        -4.3550    -0.8840    -0.0750 hc         1 X03       0.034700
     32 H16         -5.4100     1.8070    -1.0690 hc         1 X03       0.031700
     33 H16A        -6.2870     0.3000    -0.8800 hc         1 X03       0.031700
     34 H16B        -5.7220     1.1630     0.5410 hc         1 X03       0.031700
     35 H17         -2.2400     1.2590     2.1040 hc         1 X03       0.035033
     36 H17A        -3.9240     1.6450     1.7990 hc         1 X03       0.035033
     37 H17B        -3.4490    -0.0230     2.0860 hc         1 X03       0.035033
     38 H18         -2.4740     2.0250    -1.6000 hc         1 X03       0.035033
     39 H18A        -3.5620     2.7430    -0.4130 hc         1 X03       0.035033
     40 H18B        -1.8530     2.6310    -0.0640 hc         1 X03       0.035033
@<TRIPOS>BOND
     1     1     2 1   
     2     1     5 2   
     3     2     3 1   
     4     2    19 1   
     5     3     4 2   
     6     3    10 1   
     7     4     5 1   
     8     4    13 1   
     9     5     6 1   
    10     6     7 1   
    11     6     9 2   
    12     7     8 1   
    13     7    20 1   
    14     8    21 1   
    15     8    22 1   
    16    10    11 1   
    17    10    23 1   
    18    10    24 1   
    19    11    12 1   
    20    11    25 1   
    21    11    26 1   
    22    12    13 1   
    23    12    14 1   
    24    12    27 1   
    25    13    28 1   
    26    13    29 1   
    27    14    15 1   
    28    14    17 1   
    29    14    18 1   
    30    15    16 1   
    31    15    30 1   
    32    15    31 1   
    33    16    32 1   
    34    16    33 1   
    35    16    34 1   
    36    17    35 1   
    37    17    36 1   
    38    17    37 1   
    39    18    38 1   
    40    18    39 1   
    41    18    40 1   
@<TRIPOS>SUBSTRUCTURE
     1 X03         1 TEMP              0 ****  ****    0 ROOT
