@<TRIPOS>MOLECULE
X05
   29    30     1     0     0
SMALL
bcc


@<TRIPOS>ATOM
      1 OAD          0.1350     2.3420     0.6630 oh         1 X05      -0.598800
      2 CAK          0.3080     1.1260    -0.0250 c6         1 X05       0.163100
      3 CAL         -0.7730     0.1660     0.4360 c5         1 X05       0.182500
      4 CAI         -2.2180     0.5170     0.1040 c5         1 X05       0.160100
      5 OAB         -2.2750     1.0230    -1.2110 oh         1 X05      -0.578800
      6 CAE         -2.9130    -0.8510     0.2480 c5         1 X05      -0.125400
      7 CAF         -1.7850    -1.8940     0.1580 c5         1 X05       0.176800
      8 NAM         -0.6100    -1.1230    -0.2040 n3         1 X05      -0.723600
      9 CAG          0.6550    -1.7520     0.0760 c6         1 X05       0.174800
     10 CAH          1.7940    -0.8610    -0.4070 c6         1 X05       0.133500
     11 NAA          3.0690    -1.4700    -0.0600 n8         1 X05      -0.892800
     12 CAJ          1.6730     0.5060     0.2610 c6         1 X05       0.108100
     13 OAC          2.6570     1.4130    -0.2000 oh         1 X05      -0.610800
     14 HAD          0.8660     2.9210     0.4210 ho         1 X05       0.419000
     15 HAK          0.2170     1.2700    -1.1120 h1         1 X05       0.075700
     16 HAL         -0.6990     0.0760     1.5390 h1         1 X05       0.036700
     17 HAJ          1.7660     0.3610     1.3480 h1         1 X05       0.049700
     18 HAI         -2.6230     1.2420     0.8180 h1         1 X05       0.049700
     19 HAB         -3.1990     1.1670    -1.4340 ho         1 X05       0.398000
     20 HAE1        -3.4230    -0.9190     1.2080 hc         1 X05       0.050700
     21 HAE2        -3.6710    -0.9860    -0.5250 hc         1 X05       0.050700
     22 HAF1        -1.6570    -2.3900     1.1330 h1         1 X05       0.037200
     23 HAF2        -1.9760    -2.6780    -0.5790 h1         1 X05       0.037200
     24 HAG1         0.7890    -1.9540     1.1550 h1         1 X05       0.039700
     25 HAG2         0.6990    -2.7170    -0.4360 h1         1 X05       0.039700
     26 HAH          1.6670    -0.7210    -1.4930 h1         1 X05       0.050700
     27 HAA1         3.1350    -2.3790    -0.5020 hn         1 X05       0.342300
     28 HAA2         3.8230    -0.9280    -0.4630 hn         1 X05       0.342300
     29 HAC          3.4380     1.3350     0.3550 ho         1 X05       0.412000
@<TRIPOS>BOND
     1     1     2 1   
     2     1    14 1   
     3     2     3 1   
     4     2    12 1   
     5     2    15 1   
     6     3     4 1   
     7     3     8 1   
     8     3    16 1   
     9     4     5 1   
    10     4     6 1   
    11     4    18 1   
    12     5    19 1   
    13     6     7 1   
    14     6    20 1   
    15     6    21 1   
    16     7     8 1   
    17     7    22 1   
    18     7    23 1   
    19     8     9 1   
    20     9    10 1   
    21     9    24 1   
    22     9    25 1   
    23    10    11 1   
    24    10    12 1   
    25    10    26 1   
    26    11    27 1   
    27    11    28 1   
    28    12    13 1   
    29    12    17 1   
    30    13    29 1   
@<TRIPOS>SUBSTRUCTURE
     1 X05         1 TEMP              0 ****  ****    0 ROOT
