@<TRIPOS>MOLECULE
X05
   29    30     1     0     0
SMALL
No Charge or Current Charge


@<TRIPOS>ATOM
      1 OAD          0.1560     2.4460     0.8400 oh         1 X05      -0.661000
      2 CAK          0.2760     1.2210     0.0890 c6         1 X05       0.186300
      3 CAL         -0.8160     0.1720     0.4930 c5         1 X05       0.182500
      4 CAI         -2.3070     0.5010     0.1260 c5         1 X05       0.183300
      5 OAB         -2.4650     1.2410    -1.0950 oh         1 X05      -0.641000
      6 CAE         -2.9380    -0.9300    -0.0090 c5         1 X05      -0.125400
      7 CAF         -1.7540    -1.9190     0.2130 c5         1 X05       0.176800
      8 NAM         -0.5990    -1.1150    -0.2250 n3         1 X05      -0.723600
      9 CAG          0.7410    -1.7310    -0.0390 c6         1 X05       0.174800
     10 CAH          1.8550    -0.7200    -0.4610 c6         1 X05       0.133500
     11 NAA          3.2490    -1.2450    -0.3080 n8         1 X05      -1.003200
     12 CAJ          1.6870     0.6050     0.3370 c6         1 X05       0.131300
     13 OAC          2.7480     1.5000    -0.0300 oh         1 X05      -0.673000
     14 HAD          1.0410     2.8700     0.7640 ho         1 X05       0.458000
     15 HAK          0.1810     1.4260    -0.9880 h1         1 X05       0.075700
     16 HAL         -0.7340     0.0140     1.5780 h1         1 X05       0.036700
     17 HAJ          1.7690     0.3640     1.4080 h1         1 X05       0.049700
     18 HAI         -2.7740     1.0560     0.9520 h1         1 X05       0.049700
     19 HAB         -3.4290     1.2820    -1.2750 ho         1 X05       0.437000
     20 HAE1        -3.7360    -1.0960     0.7220 hc         1 X05       0.050700
     21 HAE2        -3.3810    -1.0830    -0.9990 hc         1 X05       0.050700
     22 HAF1        -1.6660    -2.1960     1.2740 h1         1 X05       0.037200
     23 HAF2        -1.8710    -2.8420    -0.3710 h1         1 X05       0.037200
     24 HAG1         0.8870    -2.0160     1.0140 h1         1 X05       0.039700
     25 HAG2         0.8260    -2.6450    -0.6440 h1         1 X05       0.039700
     26 HAH          1.7180    -0.4940    -1.5290 h1         1 X05       0.050700
     27 HAA1         3.3580    -1.6450     0.6320 hn         1 X05       0.397500
     28 HAA2         3.3680    -2.0590    -0.9250 hn         1 X05       0.397500
     29 HAC          3.4760     0.8780    -0.2750 ho         1 X05       0.451000
@<TRIPOS>BOND
     1     1     2 1   
     2     1    14 1   
     3     2     3 1   
     4     2    12 1   
     5     2    15 1   
     6     3     4 1   
     7     3     8 1   
     8     3    16 1   
     9     4     5 1   
    10     4     6 1   
    11     4    18 1   
    12     5    19 1   
    13     6     7 1   
    14     6    20 1   
    15     6    21 1   
    16     7     8 1   
    17     7    22 1   
    18     7    23 1   
    19     8     9 1   
    20     9    10 1   
    21     9    24 1   
    22     9    25 1   
    23    10    11 1   
    24    10    12 1   
    25    10    26 1   
    26    11    27 1   
    27    11    28 1   
    28    12    13 1   
    29    12    17 1   
    30    13    29 1   
@<TRIPOS>SUBSTRUCTURE
     1 X05         1 TEMP              0 ****  ****    0 ROOT
