@<TRIPOS>MOLECULE
X06
   24    25     1     0     0
SMALL
No Charge or Current Charge


@<TRIPOS>ATOM
      1 N01          1.2380     1.2860    -0.0330 nb         1 X06      -0.359000
      2 N02          3.5590     0.7410    -0.0140 nb         1 X06      -0.366000
      3 N03          1.9140    -0.9850    -0.0180 nb         1 X06      -0.359000
      4 C06         -2.8820     0.2110     0.1560 ca         1 X06       0.049000
      5 C07         -3.2850    -1.1160    -0.0270 ca         1 X06      -0.035000
      6 C08         -2.3160    -2.1120    -0.2130 ca         1 X06      -0.179000
      7 C09         -0.9490    -1.7910    -0.2170 ca         1 X06       0.221100
      8 C10         -0.5030    -0.4460    -0.0330 cp         1 X06      -0.278500
      9 C11         -1.5170     0.5420     0.1530 ca         1 X06      -0.007000
     10 C12          0.9530    -0.0340    -0.0300 cp         1 X06       0.314500
     11 C13          2.5370     1.5970    -0.0230 ca         1 X06       0.458900
     12 C14          3.1720    -0.5340    -0.0120 ca         1 X06       0.458900
     13 Cl16        -4.0900     1.4690     0.3920 cl         1 X06      -0.208000
     14 HN04         2.1120     3.5600    -0.2930 hn         1 X06       0.510000
     15 HN0A         3.7940     3.1710    -0.2780 hn         1 X06       0.510000
     16 HN05         5.0850    -1.1480     0.2410 hn         1 X06       0.510000
     17 HN0B         3.9070    -2.4070     0.2830 hn         1 X06       0.510000
     18 H07         -4.3420    -1.3720    -0.0250 ha         1 X06       0.128000
     19 H08         -2.6270    -3.1430    -0.3580 ha         1 X06       0.133000
     20 H11         -1.2540     1.5870     0.3030 ha         1 X06       0.148000
     21 HO15         0.8240    -2.4220    -0.3470 ho         1 X06       0.527000
     22 N04          2.8450     2.9070    -0.0290 nv         1 X06      -1.065900
     23 N05          4.1470    -1.4600     0.0020 nv         1 X06      -1.065900
     24 O15         -0.0780    -2.8140    -0.4130 oh         1 X06      -0.556100
@<TRIPOS>BOND
     1     1    10 ar  
     2     1    11 ar  
     3     2    11 ar  
     4     2    12 ar  
     5     3    10 ar  
     6     3    12 ar  
     7     4     5 ar  
     8     4     9 ar  
     9     4    13 1   
    10     5     6 ar  
    11     5    18 1   
    12     6     7 ar  
    13     6    19 1   
    14     7     8 ar  
    15     7    24 1   
    16     8     9 ar  
    17     8    10 1   
    18     9    20 1   
    19    11    22 1   
    20    12    23 1   
    21    14    22 1   
    22    15    22 1   
    23    16    23 1   
    24    17    23 1   
    25    21    24 1   
@<TRIPOS>SUBSTRUCTURE
     1 X06         1 TEMP              0 ****  ****    0 ROOT
