@<TRIPOS>MOLECULE
X06
   24    25     1     0     0
SMALL
bcc


@<TRIPOS>ATOM
      1 N01          1.1820     1.2960     0.0000 nb         1 X06      -0.885000
      2 N02          3.4840     0.7110    -0.0290 nb         1 X06      -0.892000
      3 N03          1.8190    -0.9640    -0.0600 nb         1 X06      -0.885000
      4 C06         -2.8310     0.2160    -0.0060 ca         1 X06      -0.042600
      5 C07         -3.2070    -1.1230    -0.0410 ca         1 X06      -0.053000
      6 C08         -2.2360    -2.1010    -0.0710 ca         1 X06      -0.197000
      7 C09         -0.8760    -1.7690    -0.0680 ca         1 X06       0.221100
      8 C10         -0.5040    -0.4090    -0.0350 cp         1 X06      -0.278500
      9 C11         -1.5010     0.5700    -0.0030 ca         1 X06      -0.025000
     10 C12          0.9080     0.0060    -0.0310 cp         1 X06       0.840500
     11 C13          2.4910     1.5990     0.0030 ca         1 X06       0.984900
     12 C14          3.1030    -0.5600    -0.0590 ca         1 X06       0.984900
     13 CL16        -4.0540     1.4480     0.0340 cl         1 X06      -0.116400
     14 HN04         2.0960     3.5940     0.0540 hn         1 X06       0.454800
     15 HN0A         3.7760     3.1770     0.0340 hn         1 X06       0.454800
     16 HN05         5.0140    -1.2530    -0.0880 hn         1 X06       0.454800
     17 HN0B         3.7920    -2.4770    -0.1090 hn         1 X06       0.454800
     18 H07         -4.2530    -1.4010    -0.0430 ha         1 X06       0.146000
     19 H08         -2.5200    -3.1450    -0.0970 ha         1 X06       0.151000
     20 H11         -1.2080     1.6110     0.0220 ha         1 X06       0.166000
     21 HO15         0.9120    -2.3580    -0.0910 ho         1 X06       0.488000
     22 N04          2.8130     2.8900     0.0420 nv         1 X06      -0.955500
     23 N05          4.0400    -1.5040    -0.0930 nv         1 X06      -0.955500
     24 O15          0.0030    -2.7660    -0.0970 oh         1 X06      -0.517100
@<TRIPOS>BOND
     1     1    10 ar  
     2     1    11 ar  
     3     2    11 ar  
     4     2    12 ar  
     5     3    10 ar  
     6     3    12 ar  
     7     4     5 ar  
     8     4     9 ar  
     9     4    13 1   
    10     5     6 ar  
    11     5    18 1   
    12     6     7 ar  
    13     6    19 1   
    14     7     8 ar  
    15     7    24 1   
    16     8     9 ar  
    17     8    10 1   
    18     9    20 1   
    19    11    22 1   
    20    12    23 1   
    21    14    22 1   
    22    15    22 1   
    23    16    23 1   
    24    17    23 1   
    25    21    24 1   
@<TRIPOS>SUBSTRUCTURE
     1 X06         1 TEMP              0 ****  ****    0 ROOT
