@<TRIPOS>MOLECULE
X07
   32    33     1     0     0
SMALL
No Charge or Current Charge


@<TRIPOS>ATOM
      1 C1          -1.1280    -1.6100     0.3690 ca         1 X07      -0.240000
      2 C2          -2.5220    -1.6990     0.2900 ca         1 X07       0.034000
      3 C3          -3.2830    -0.5410     0.0450 ca         1 X07      -0.275200
      4 C4          -2.6260     0.7000    -0.1150 ca         1 X07       0.039000
      5 C5          -1.2130     0.7970    -0.0360 ca         1 X07      -0.271600
      6 C6          -0.4720    -0.3820     0.2040 ca         1 X07       0.434000
      7 N7           0.9120    -0.3540     0.2910 nu         1 X07      -0.944200
      8 C8          -0.5300     2.1370    -0.2080 c          1 X07       0.633700
      9 N9          -1.2850     3.2130    -0.5070 nt         1 X07      -0.591000
     10 O10          0.6720     2.3050    -0.0840 o          1 X07      -0.638100
     11 N11         -4.7750    -0.6260    -0.0400 no         1 X07       0.709200
     12 O12         -5.3070    -1.7330     0.1100 o          1 X07      -0.415500
     13 O13         -5.4100     0.4130    -0.2590 o          1 X07      -0.415500
     14 C14          1.8310    -1.3690    -0.2240 c3         1 X07       0.277100
     15 C15          5.8500     0.0160     0.1600 ca         1 X07       0.349900
     16 N16          5.3840    -0.9010     1.0400 nb         1 X07      -0.662000
     17 C17          4.1040    -1.3210     0.8950 ca         1 X07       0.356900
     18 C18          3.2500    -0.8500    -0.1200 ca         1 X07      -0.173300
     19 C19          3.7420     0.1020    -1.0320 ca         1 X07      -0.052000
     20 C20          5.0680     0.5400    -0.8820 ca         1 X07      -0.164000
     21 H1          -0.5570    -2.5110     0.5680 ha         1 X07       0.128000
     22 H2          -2.9990    -2.6700     0.4220 ha         1 X07       0.148000
     23 H4          -3.2270     1.5880    -0.2950 ha         1 X07       0.144000
     24 HN7          1.2600     0.6120     0.2240 hn         1 X07       0.541000
     25 HN9         -2.2810     3.1280    -0.6280 hn         1 X07       0.321000
     26 HN9A        -0.8320     4.1070    -0.6200 hn         1 X07       0.321000
     27 H14          1.7320    -2.3060     0.3420 h1         1 X07       0.054700
     28 H14A         1.6030    -1.5880    -1.2770 h1         1 X07       0.054700
     29 H17          3.7570    -2.0580     1.6170 h4         1 X07       0.021100
     30 H19          3.1150     0.4920    -1.8320 ha         1 X07       0.124000
     31 H20          5.4910     1.2750    -1.5620 ha         1 X07       0.129000
     32 H15          6.8820     0.3390     0.2960 h4         1 X07       0.023100
@<TRIPOS>BOND
     1     1     2 ar  
     2     1     6 ar  
     3     1    21 1   
     4     2     3 ar  
     5     2    22 1   
     6     3     4 ar  
     7     3    11 1   
     8     4     5 ar  
     9     4    23 1   
    10     5     6 ar  
    11     5     8 1   
    12     6     7 1   
    13     7    14 1   
    14     7    24 1   
    15     8     9 1   
    16     8    10 2   
    17     9    25 1   
    18     9    26 1   
    19    11    12 1   
    20    11    13 1   
    21    14    18 1   
    22    14    27 1   
    23    14    28 1   
    24    15    16 ar  
    25    15    20 ar  
    26    15    32 1   
    27    16    17 ar  
    28    17    18 ar  
    29    17    29 1   
    30    18    19 ar  
    31    19    20 ar  
    32    19    30 1   
    33    20    31 1   
@<TRIPOS>SUBSTRUCTURE
     1 X07         1 TEMP              0 ****  ****    0 ROOT
