@<TRIPOS>MOLECULE
X07
   32    33     1     0     0
SMALL
abcg2


@<TRIPOS>ATOM
      1 C1          -1.0500    -1.5610    -0.0440 ca         1 X07      -0.240000
      2 C2          -2.4120    -1.6810    -0.1300 ca         1 X07       0.034000
      3 C3          -3.2110    -0.5390    -0.0910 ca         1 X07      -0.275200
      4 C4          -2.6270     0.7160     0.0120 ca         1 X07       0.039000
      5 C5          -1.2540     0.8630     0.0810 ca         1 X07      -0.271600
      6 C6          -0.4230    -0.2990     0.0830 ca         1 X07       0.434000
      7 N7           0.9100    -0.2030     0.1780 nu         1 X07      -0.944200
      8 C8          -0.6540     2.2240     0.1800 c          1 X07       0.633700
      9 N9          -1.3720     3.2360    -0.3230 nt         1 X07      -0.591000
     10 O10          0.4430     2.4060     0.7050 o          1 X07      -0.638100
     11 N11         -4.6370    -0.6580    -0.1490 no         1 X07       0.709200
     12 O12         -5.1170    -1.7660    -0.2650 o          1 X07      -0.415500
     13 O13         -5.3070     0.3520    -0.0820 o          1 X07      -0.415500
     14 C14          1.8160    -1.3290     0.1780 c3         1 X07       0.277100
     15 C15          5.8180    -0.0210    -0.1400 ca         1 X07       0.349900
     16 N16          5.4300    -0.6440     0.9640 nb         1 X07      -0.662000
     17 C17          4.1650    -1.0410     1.0400 ca         1 X07       0.356900
     18 C18          3.2300    -0.8460     0.0310 ca         1 X07      -0.173300
     19 C19          3.6530    -0.1890    -1.1200 ca         1 X07      -0.052000
     20 C20          4.9680     0.2320    -1.2090 ca         1 X07      -0.164000
     21 H1          -0.4520    -2.4610    -0.0530 ha         1 X07       0.128000
     22 H2          -2.8490    -2.6650    -0.2120 ha         1 X07       0.148000
     23 H4          -3.2630     1.5890     0.0560 ha         1 X07       0.144000
     24 HN7          1.2680     0.7020     0.4550 hn         1 X07       0.541000
     25 HN9         -2.1830     3.0990    -0.9000 hn         1 X07       0.321000
     26 HN9A        -1.0010     4.1720    -0.2760 hn         1 X07       0.321000
     27 H14          1.7160    -1.9220     1.0930 h1         1 X07       0.054700
     28 H14A         1.5780    -1.9930    -0.6560 h1         1 X07       0.054700
     29 H17          3.8710    -1.5480     1.9540 h4         1 X07       0.021100
     30 H19          2.9630    -0.0150    -1.9370 ha         1 X07       0.124000
     31 H20          5.3350     0.7420    -2.0890 ha         1 X07       0.129000
     32 H15          6.8550     0.2950    -0.1820 h4         1 X07       0.023100
@<TRIPOS>BOND
     1     1     2 ar  
     2     1     6 ar  
     3     1    21 1   
     4     2     3 ar  
     5     2    22 1   
     6     3     4 ar  
     7     3    11 1   
     8     4     5 ar  
     9     4    23 1   
    10     5     6 ar  
    11     5     8 1   
    12     6     7 1   
    13     7    14 1   
    14     7    24 1   
    15     8     9 1   
    16     8    10 2   
    17     9    25 1   
    18     9    26 1   
    19    11    12 1   
    20    11    13 1   
    21    14    18 1   
    22    14    27 1   
    23    14    28 1   
    24    15    16 ar  
    25    15    20 ar  
    26    15    32 1   
    27    16    17 ar  
    28    17    18 ar  
    29    17    29 1   
    30    18    19 ar  
    31    19    20 ar  
    32    19    30 1   
    33    20    31 1   
@<TRIPOS>SUBSTRUCTURE
     1 X07         1 TEMP              0 ****  ****    0 ROOT
