@<TRIPOS>MOLECULE
X08
   56    58     1     0     0
SMALL
No Charge or Current Charge


@<TRIPOS>ATOM
      1 C02         -8.9220    17.3440    35.6870 c3         1 X08       0.112500
      2 C03         -9.8810    16.2150    36.1030 ca         1 X08       0.340300
      3 C04        -10.9480    15.8310    35.2670 ca         1 X08      -0.141000
      4 C05        -11.8080    14.7990    35.6740 ca         1 X08      -0.076000
      5 C06        -11.5710    14.1830    36.9150 ca         1 X08      -0.127300
      6 C07        -10.4810    14.6280    37.6910 ca         1 X08       0.339900
      7 C09        -12.4710    13.0570    37.4040 c3         1 X08      -0.042800
      8 C10         -8.2870    19.7680    36.0620 c3         1 X08       0.134800
      9 C11         -6.8250    19.5590    36.5370 c3         1 X08       0.061000
     10 C13         -5.9950    21.9220    36.8440 c          1 X08       0.590100
     11 C15         -5.0250    22.9700    36.2860 c3         1 X08      -0.153400
     12 C16         -5.7550    24.0810    35.4900 c3         1 X08      -0.068400
     13 C17         -6.5020    23.5630    34.2380 c3         1 X08      -0.081400
     14 C18         -7.1840    24.6930    33.4310 c3         1 X08      -0.057400
     15 C19         -7.9850    24.1990    32.1950 c5         1 X08       0.082300
     16 C20         -8.8570    25.2790    31.4550 c5         1 X08       0.096700
     17 C22         -7.7840    26.6720    29.8920 c          1 X08       0.608000
     18 C25         -9.1400    24.7530    29.9870 c5         1 X08       0.104700
     19 C26         -8.3390    23.4240    29.7690 c5         1 X08       0.049600
     20 N01         -9.1650    18.6240    36.4130 n7         1 X08      -0.859400
     21 N08         -9.6490    15.6220    37.3020 nb         1 X08      -0.675000
     22 N12         -5.9560    20.6980    36.2130 ns         1 X08      -0.504900
     23 N21         -8.0010    26.4450    31.2070 ns         1 X08      -0.510900
     24 N24         -8.4500    25.7490    29.1620 ns         1 X08      -0.524900
     25 O14         -6.7280    22.1450    37.7960 o          1 X08      -0.610100
     26 O23         -7.1110    27.5750    29.4360 o          1 X08      -0.581000
     27 S27         -6.8710    23.4940    30.8960 ss         1 X08      -0.422000
     28 H021        -9.0190    17.5040    34.6040 h1         1 X08       0.041700
     29 H022        -7.8960    16.9940    35.8630 h1         1 X08       0.041700
     30 H041       -11.1040    16.3330    34.3150 ha         1 X08       0.123000
     31 H051       -12.6380    14.4870    35.0420 ha         1 X08       0.118000
     32 H071       -10.2650    14.1720    38.6570 h4         1 X08       0.018100
     33 H092       -13.5230    13.2590    37.1700 hc         1 X08       0.045367
     34 H093       -12.1990    12.1060    36.9310 hc         1 X08       0.045367
     35 H091       -12.3950    12.9240    38.4900 hc         1 X08       0.045367
     36 H101        -8.2890    19.9370    34.9760 h1         1 X08       0.056700
     37 H102        -8.6730    20.6840    36.5300 h1         1 X08       0.056700
     38 H111        -6.8100    19.4010    37.6240 h1         1 X08       0.058700
     39 H112        -6.4050    18.6640    36.0600 h1         1 X08       0.058700
     40 H152        -4.2930    22.4940    35.6240 hc         1 X08       0.061200
     41 H151        -4.5040    23.4420    37.1270 hc         1 X08       0.061200
     42 H161        -5.0180    24.8330    35.1810 hc         1 X08       0.053700
     43 H162        -6.4660    24.5920    36.1520 hc         1 X08       0.053700
     44 H172        -7.2650    22.8360    34.5410 hc         1 X08       0.045700
     45 H171        -5.7910    23.0320    33.5930 hc         1 X08       0.045700
     46 H182        -6.4160    25.4110    33.1190 hc         1 X08       0.055200
     47 H181        -7.8630    25.2350    34.1010 hc         1 X08       0.055200
     48 H191        -8.6490    23.3920    32.5350 h1         1 X08       0.069700
     49 H201        -9.7730    25.5380    32.0030 h1         1 X08       0.060700
     50 H251       -10.2080    24.6610    29.7470 h1         1 X08       0.061700
     51 H262        -8.9540    22.5600    30.0530 h1         1 X08       0.078200
     52 H261        -8.0290    23.2820    28.7250 h1         1 X08       0.078200
     53 H011        -9.0900    18.4400    37.4230 hn         1 X08       0.430000
     54 H121        -5.3040    20.6040    35.4420 hn         1 X08       0.311500
     55 H211        -7.5800    27.0550    31.8950 hn         1 X08       0.337500
     56 H241        -8.3930    25.7750    28.1510 hn         1 X08       0.343500
@<TRIPOS>BOND
     1     1     2 1   
     2     1    20 1   
     3     1    28 1   
     4     1    29 1   
     5     2     3 ar  
     6     2    21 ar  
     7     3     4 ar  
     8     3    30 1   
     9     4     5 ar  
    10     4    31 1   
    11     5     6 ar  
    12     5     7 1   
    13     6    21 ar  
    14     6    32 1   
    15     7    33 1   
    16     7    34 1   
    17     7    35 1   
    18     8     9 1   
    19     8    20 1   
    20     8    36 1   
    21     8    37 1   
    22     9    22 1   
    23     9    38 1   
    24     9    39 1   
    25    10    11 1   
    26    10    22 1   
    27    10    25 2   
    28    11    12 1   
    29    11    40 1   
    30    11    41 1   
    31    12    13 1   
    32    12    42 1   
    33    12    43 1   
    34    13    14 1   
    35    13    44 1   
    36    13    45 1   
    37    14    15 1   
    38    14    46 1   
    39    14    47 1   
    40    15    16 1   
    41    15    27 1   
    42    15    48 1   
    43    16    18 1   
    44    16    23 1   
    45    16    49 1   
    46    17    23 1   
    47    17    24 1   
    48    17    26 2   
    49    18    19 1   
    50    18    24 1   
    51    18    50 1   
    52    19    27 1   
    53    19    51 1   
    54    19    52 1   
    55    20    53 1   
    56    22    54 1   
    57    23    55 1   
    58    24    56 1   
@<TRIPOS>SUBSTRUCTURE
     1 X08         1 TEMP              0 ****  ****    0 ROOT
