@<TRIPOS>MOLECULE
X08
   56    58     1     0     0
SMALL
abcg2


@<TRIPOS>ATOM
      1 C02         -8.5800    17.2100    35.6330 c3         1 X08       0.112500
      2 C03         -9.6820    16.2620    36.0240 ca         1 X08       0.340300
      3 C04        -10.4480    15.5860    35.0780 ca         1 X08      -0.141000
      4 C05        -11.4580    14.7370    35.5040 ca         1 X08      -0.076000
      5 C06        -11.6980    14.5770    36.8680 ca         1 X08      -0.127300
      6 C07        -10.8820    15.3030    37.7330 ca         1 X08       0.339900
      7 C09        -12.7780    13.6700    37.3860 c3         1 X08      -0.042800
      8 C10         -7.9660    19.5950    35.6360 c3         1 X08       0.134800
      9 C11         -6.7040    19.5280    36.5120 c3         1 X08       0.061000
     10 C13         -5.9140    21.8430    36.8090 c          1 X08       0.590100
     11 C15         -4.9810    22.9180    36.2890 c3         1 X08      -0.153400
     12 C16         -5.7560    24.0000    35.5260 c3         1 X08      -0.068400
     13 C17         -6.4380    23.4700    34.2670 c3         1 X08      -0.081400
     14 C18         -7.2140    24.5460    33.5140 c3         1 X08      -0.057400
     15 C19         -7.9700    24.0120    32.3080 c5         1 X08       0.082300
     16 C20         -8.8770    25.0360    31.6060 c5         1 X08       0.096700
     17 C22         -8.2640    26.7710    30.1380 c          1 X08       0.608000
     18 C25         -9.1190    24.5770    30.1290 c5         1 X08       0.104700
     19 C26         -8.3000    23.3070    29.8590 c5         1 X08       0.049600
     20 N01         -8.9810    18.5900    35.9260 n7         1 X08      -0.859400
     21 N08         -9.9020    16.1170    37.3360 nb         1 X08      -0.675000
     22 N12         -5.7980    20.6290    36.2350 ns         1 X08      -0.504900
     23 N21         -8.2710    26.3460    31.4380 ns         1 X08      -0.510900
     24 N24         -8.6650    25.7240    29.3650 ns         1 X08      -0.524900
     25 O14         -6.7420    22.0820    37.6930 o          1 X08      -0.610100
     26 O23         -7.9370    27.8880    29.7410 o          1 X08      -0.581000
     27 S27         -6.8710    23.3630    30.9860 ss         1 X08      -0.422000
     28 H021        -8.3840    17.1310    34.5620 h1         1 X08       0.041700
     29 H022        -7.6650    16.9060    36.1590 h1         1 X08       0.041700
     30 H041       -10.2510    15.7260    34.0230 ha         1 X08       0.123000
     31 H051       -12.0600    14.2000    34.7800 ha         1 X08       0.118000
     32 H071       -11.0280    15.2160    38.8060 h4         1 X08       0.018100
     33 H092       -13.7580    13.9780    37.0150 hc         1 X08       0.045367
     34 H093       -12.6150    12.6410    37.0560 hc         1 X08       0.045367
     35 H091       -12.8080    13.6790    38.4750 hc         1 X08       0.045367
     36 H101        -7.6780    19.5060    34.5840 h1         1 X08       0.056700
     37 H102        -8.4160    20.5820    35.7630 h1         1 X08       0.056700
     38 H111        -6.9900    19.5740    37.5630 h1         1 X08       0.058700
     39 H112        -6.1610    18.5980    36.3480 h1         1 X08       0.058700
     40 H152        -4.2130    22.4850    35.6440 hc         1 X08       0.061200
     41 H151        -4.4820    23.3620    37.1530 hc         1 X08       0.061200
     42 H161        -5.0620    24.8010    35.2570 hc         1 X08       0.053700
     43 H162        -6.5040    24.4400    36.1920 hc         1 X08       0.053700
     44 H172        -7.1240    22.6590    34.5300 hc         1 X08       0.045700
     45 H171        -5.6820    23.0300    33.6090 hc         1 X08       0.045700
     46 H182        -6.5390    25.3450    33.1970 hc         1 X08       0.055200
     47 H181        -7.9460    25.0010    34.1910 hc         1 X08       0.055200
     48 H191        -8.6040    23.1790    32.6220 h1         1 X08       0.069700
     49 H201        -9.8140    25.1140    32.1630 h1         1 X08       0.060700
     50 H251       -10.1750    24.3780    29.9380 h1         1 X08       0.061700
     51 H262        -8.8960    22.4200    30.0780 h1         1 X08       0.078200
     52 H261        -7.9580    23.2590    28.8270 h1         1 X08       0.078200
     53 H011        -9.2500    18.6480    36.9030 hn         1 X08       0.430000
     54 H121        -5.1370    20.5220    35.4820 hn         1 X08       0.311500
     55 H211        -8.2480    27.0240    32.1800 hn         1 X08       0.337500
     56 H241        -8.8630    25.8460    28.3870 hn         1 X08       0.343500
@<TRIPOS>BOND
     1     1     2 1   
     2     1    20 1   
     3     1    28 1   
     4     1    29 1   
     5     2     3 ar  
     6     2    21 ar  
     7     3     4 ar  
     8     3    30 1   
     9     4     5 ar  
    10     4    31 1   
    11     5     6 ar  
    12     5     7 1   
    13     6    21 ar  
    14     6    32 1   
    15     7    33 1   
    16     7    34 1   
    17     7    35 1   
    18     8     9 1   
    19     8    20 1   
    20     8    36 1   
    21     8    37 1   
    22     9    22 1   
    23     9    38 1   
    24     9    39 1   
    25    10    11 1   
    26    10    22 1   
    27    10    25 2   
    28    11    12 1   
    29    11    40 1   
    30    11    41 1   
    31    12    13 1   
    32    12    42 1   
    33    12    43 1   
    34    13    14 1   
    35    13    44 1   
    36    13    45 1   
    37    14    15 1   
    38    14    46 1   
    39    14    47 1   
    40    15    16 1   
    41    15    27 1   
    42    15    48 1   
    43    16    18 1   
    44    16    23 1   
    45    16    49 1   
    46    17    23 1   
    47    17    24 1   
    48    17    26 2   
    49    18    19 1   
    50    18    24 1   
    51    18    50 1   
    52    19    27 1   
    53    19    51 1   
    54    19    52 1   
    55    20    53 1   
    56    22    54 1   
    57    23    55 1   
    58    24    56 1   
@<TRIPOS>SUBSTRUCTURE
     1 X08         1 TEMP              0 ****  ****    0 ROOT
