@<TRIPOS>MOLECULE
X09
   29    30     1     0     0
SMALL
bcc


@<TRIPOS>ATOM
      1 OAC         -1.2790     2.5060     0.6170 oh         1 X09      -0.592800
      2 CAI         -0.7520     1.5010    -0.2120 c5         1 X09       0.099100
      3 CAJ          0.7710     1.3830    -0.1840 c5         1 X09       0.102100
      4 OAD          1.4620     2.3070    -0.9910 oh         1 X09      -0.591800
      5 CAL          0.9960    -0.0360    -0.6880 c5         1 X09       0.186500
      6 CAH          2.1140    -0.8710    -0.0620 c5         1 X09       0.128100
      7 OAB          2.3040    -0.4790     1.2800 oh         1 X09      -0.599800
      8 CAF          1.5140    -2.2720    -0.1570 c5         1 X09      -0.133400
      9 CAG          0.0510    -2.0410     0.2060 c5         1 X09       0.195800
     10 NAM         -0.2550    -0.7590    -0.4100 n3         1 X09      -0.738600
     11 CAK         -1.1950     0.1190     0.2580 c5         1 X09       0.199500
     12 CAE         -2.6480    -0.1730    -0.0720 c3         1 X09       0.154800
     13 NAA         -3.0710    -1.4630     0.4530 n8         1 X09      -0.881800
     14 HAC         -1.2510     3.3420     0.1440 ho         1 X09       0.406000
     15 HAI         -1.0740     1.6410    -1.2560 h1         1 X09       0.053700
     16 HAJ          1.0860     1.4710     0.8640 h1         1 X09       0.069700
     17 HAK         -1.0750     0.0720     1.3580 h1         1 X09       0.043700
     18 HAD          1.4660     3.1580    -0.5440 ho         1 X09       0.406000
     19 HAL          1.1790     0.0040    -1.7710 h1         1 X09       0.082700
     20 HAH          3.0450    -0.7790    -0.6350 h1         1 X09       0.050700
     21 HAB          2.9130    -1.1010     1.6880 ho         1 X09       0.405000
     22 HAF1         1.6000    -2.6360    -1.1840 hc         1 X09       0.055200
     23 HAF2         2.0110    -2.9980     0.4890 hc         1 X09       0.055200
     24 HAG1        -0.5980    -2.8360    -0.1640 h1         1 X09       0.048700
     25 HAG2        -0.0780    -2.0050     1.2970 h1         1 X09       0.048700
     26 HAE1        -3.2570     0.6670     0.2930 h1         1 X09       0.039700
     27 HAE2        -2.7530    -0.1900    -1.1610 h1         1 X09       0.039700
     28 HAA1        -3.0240    -1.4420     1.4640 hn         1 X09       0.334300
     29 HAA2        -4.0490    -1.6070     0.2320 hn         1 X09       0.334300
@<TRIPOS>BOND
     1     1     2 1   
     2     1    14 1   
     3     2     3 1   
     4     2    11 1   
     5     2    15 1   
     6     3     4 1   
     7     3     5 1   
     8     3    16 1   
     9     4    18 1   
    10     5     6 1   
    11     5    10 1   
    12     5    19 1   
    13     6     7 1   
    14     6     8 1   
    15     6    20 1   
    16     7    21 1   
    17     8     9 1   
    18     8    22 1   
    19     8    23 1   
    20     9    10 1   
    21     9    24 1   
    22     9    25 1   
    23    10    11 1   
    24    11    12 1   
    25    11    17 1   
    26    12    13 1   
    27    12    26 1   
    28    12    27 1   
    29    13    28 1   
    30    13    29 1   
@<TRIPOS>SUBSTRUCTURE
     1 X09         1 TEMP              0 ****  ****    0 ROOT
