@<TRIPOS>MOLECULE
X09
   29    30     1     0     0
SMALL
No Charge or Current Charge


@<TRIPOS>ATOM
      1 OAC         -1.3160     2.6050     0.3740 oh         1 X09      -0.655000
      2 CAI         -0.7440     1.5160    -0.3730 c5         1 X09       0.122300
      3 CAJ          0.8100     1.4260    -0.2130 c5         1 X09       0.125300
      4 OAD          1.5040     2.4600    -0.9340 oh         1 X09      -0.654000
      5 CAL          1.0660    -0.0220    -0.7830 c5         1 X09       0.186500
      6 CAH          2.0630    -0.8490     0.1170 c5         1 X09       0.151300
      7 OAB          1.9800    -0.6290     1.5360 oh         1 X09      -0.662000
      8 CAF          1.5440    -2.2610    -0.2530 c5         1 X09      -0.133400
      9 CAG          0.0110    -2.0670    -0.0690 c5         1 X09       0.195800
     10 NAM         -0.2450    -0.7430    -0.7200 n3         1 X09      -0.738600
     11 CAK         -1.1270     0.0970     0.1610 c5         1 X09       0.199500
     12 CAE         -2.6640    -0.2120     0.0870 c3         1 X09       0.154800
     13 NAA         -3.0740    -1.5120     0.6940 n8         1 X09      -0.992200
     14 HAC         -1.2250     3.4120    -0.1800 ho         1 X09       0.445000
     15 HAI         -1.0220     1.6030    -1.4340 h1         1 X09       0.053700
     16 HAJ          1.0580     1.4920     0.8540 h1         1 X09       0.069700
     17 HAK         -0.8270     0.0240     1.2170 h1         1 X09       0.043700
     18 HAD          1.4300     3.2810    -0.3980 ho         1 X09       0.445000
     19 HAL          1.4290     0.0180    -1.8200 h1         1 X09       0.082700
     20 HAH          3.0990    -0.7020    -0.2210 h1         1 X09       0.050700
     21 HAB          2.6260    -1.2370     1.9570 ho         1 X09       0.444000
     22 HAF1         1.7920    -2.5260    -1.2880 hc         1 X09       0.055200
     23 HAF2         1.9460    -3.0500     0.3920 hc         1 X09       0.055200
     24 HAG1        -0.5640    -2.8750    -0.5420 h1         1 X09       0.048700
     25 HAG2        -0.2410    -2.0690     1.0010 h1         1 X09       0.048700
     26 HAE1        -3.2070     0.5890     0.6070 h1         1 X09       0.039700
     27 HAE2        -2.9770    -0.2010    -0.9660 h1         1 X09       0.039700
     28 HAA1        -2.8760    -1.4880     1.7010 hn         1 X09       0.389500
     29 HAA2        -4.0960    -1.5940     0.6490 hn         1 X09       0.389500
@<TRIPOS>BOND
     1     1     2 1   
     2     1    14 1   
     3     2     3 1   
     4     2    11 1   
     5     2    15 1   
     6     3     4 1   
     7     3     5 1   
     8     3    16 1   
     9     4    18 1   
    10     5     6 1   
    11     5    10 1   
    12     5    19 1   
    13     6     7 1   
    14     6     8 1   
    15     6    20 1   
    16     7    21 1   
    17     8     9 1   
    18     8    22 1   
    19     8    23 1   
    20     9    10 1   
    21     9    24 1   
    22     9    25 1   
    23    10    11 1   
    24    11    12 1   
    25    11    17 1   
    26    12    13 1   
    27    12    26 1   
    28    12    27 1   
    29    13    28 1   
    30    13    29 1   
@<TRIPOS>SUBSTRUCTURE
     1 X09         1 TEMP              0 ****  ****    0 ROOT
