@<TRIPOS>MOLECULE
X0A
   34    36     1     0     0
SMALL
abcg2


@<TRIPOS>ATOM
      1 N01         -0.4610     2.1300     0.1690 nb         1 X0A      -0.389000
      2 N02          1.8080     1.4710     0.1760 nb         1 X0A      -0.346000
      3 N03          0.0870    -0.1440    -0.0080 nb         1 X0A      -0.321000
      4 C06         -3.9360    -1.1650    -0.1790 ca         1 X0A       0.049000
      5 C07         -4.9200    -0.1830    -0.1300 ca         1 X0A      -0.034000
      6 C08         -4.5560     1.1420    -0.0230 ca         1 X0A      -0.177000
      7 C09         -3.2090     1.5170     0.0390 ca         1 X0A       0.222100
      8 C10         -2.2170     0.5160    -0.0110 cp         1 X0A      -0.280500
      9 C11         -2.6040    -0.8240    -0.1210 ca         1 X0A      -0.006000
     10 C12         -0.7840     0.8420     0.0520 cp         1 X0A       0.316500
     11 C13          0.8520     2.3990     0.2280 ca         1 X0A       0.462900
     12 C14          1.3760     0.2270     0.0560 ca         1 X0A       0.452900
     13 C15          3.6420    -0.8440     0.0080 ca         1 X0A       0.309000
     14 C16          4.4760     0.2560     0.2170 ca         1 X0A      -0.146000
     15 C17          5.8540     0.0800     0.2250 ca         1 X0A      -0.084500
     16 C18          6.4260    -1.1680     0.0290 ca         1 X0A      -0.133000
     17 C19          5.5940    -2.2610    -0.1780 ca         1 X0A      -0.084500
     18 C20          4.2200    -2.1030    -0.1890 ca         1 X0A      -0.146000
     19 CL22        -4.3940    -2.8330    -0.3140 cl         1 X0A      -0.205000
     20 HN04         0.5350     4.4030     0.3960 hn         1 X0A       0.511500
     21 HN0A         2.1940     3.9130     0.3990 hn         1 X0A       0.511500
     22 HN05         1.7910    -1.6950    -0.1250 hn         1 X0A       0.515000
     23 H07         -5.9680    -0.4500    -0.1760 ha         1 X0A       0.129000
     24 H08         -5.3160     1.9110     0.0140 ha         1 X0A       0.134000
     25 H11         -1.8390    -1.5860    -0.1580 ha         1 X0A       0.147000
     26 H16          4.0590     1.2370     0.3720 ha         1 X0A       0.129500
     27 H17          6.4860     0.9440     0.3890 ha         1 X0A       0.114000
     28 H18          7.5010    -1.2880     0.0370 ha         1 X0A       0.116000
     29 H19          6.0140    -3.2460    -0.3350 ha         1 X0A       0.114000
     30 H20          3.5830    -2.9650    -0.3540 ha         1 X0A       0.129500
     31 HO21        -1.9440     2.9090     0.1760 ho         1 X0A       0.526000
     32 N04          1.2200     3.6700     0.3460 nv         1 X0A      -1.064900
     33 N05          2.2470    -0.8010    -0.0150 nu         1 X0A      -0.916900
     34 O21         -2.9340     2.8140     0.1410 oh         1 X0A      -0.554100
@<TRIPOS>BOND
     1     1    10 ar  
     2     1    11 ar  
     3     2    11 ar  
     4     2    12 ar  
     5     3    10 ar  
     6     3    12 ar  
     7     4     5 ar  
     8     4     9 ar  
     9     4    19 1   
    10     5     6 ar  
    11     5    23 1   
    12     6     7 ar  
    13     6    24 1   
    14     7     8 ar  
    15     7    34 1   
    16     8     9 ar  
    17     8    10 1   
    18     9    25 1   
    19    11    32 1   
    20    12    33 1   
    21    13    14 ar  
    22    13    18 ar  
    23    13    33 1   
    24    14    15 ar  
    25    14    26 1   
    26    15    16 ar  
    27    15    27 1   
    28    16    17 ar  
    29    16    28 1   
    30    17    18 ar  
    31    17    29 1   
    32    18    30 1   
    33    20    32 1   
    34    21    32 1   
    35    22    33 1   
    36    31    34 1   
@<TRIPOS>SUBSTRUCTURE
     1 X0A         1 TEMP              0 ****  ****    0 ROOT
