@<TRIPOS>MOLECULE
X0A
   34    36     1     0     0
SMALL
No Charge or Current Charge


@<TRIPOS>ATOM
      1 N01         -0.4280     2.2230     0.0380 nb         1 X0A      -0.389000
      2 N02          1.8530     1.5350    -0.0120 nb         1 X0A      -0.346000
      3 N03          0.1060    -0.0830    -0.0340 nb         1 X0A      -0.321000
      4 C06         -4.0060    -1.1860     0.1730 ca         1 X0A       0.049000
      5 C07         -5.0140    -0.2240     0.0400 ca         1 X0A      -0.034000
      6 C08         -4.6630     1.1260    -0.1060 ca         1 X0A      -0.177000
      7 C09         -3.3160     1.5190    -0.1180 ca         1 X0A       0.222100
      8 C10         -2.2630     0.5640     0.0150 cp         1 X0A      -0.280500
      9 C11         -2.6560    -0.8020     0.1600 ca         1 X0A      -0.006000
     10 C12         -0.7920     0.9230     0.0050 cp         1 X0A       0.316500
     11 C13          0.8870     2.4510     0.0250 ca         1 X0A       0.462900
     12 C14          1.3970     0.2760    -0.0290 ca         1 X0A       0.452900
     13 C15          3.6900    -0.8830    -0.0210 ca         1 X0A       0.309000
     14 C16          4.4820     0.0440     0.6850 ca         1 X0A      -0.146000
     15 C17          5.8780    -0.1160     0.7540 ca         1 X0A      -0.084500
     16 C18          6.4910    -1.2100     0.1220 ca         1 X0A      -0.133000
     17 C19          5.7080    -2.1470    -0.5710 ca         1 X0A      -0.084500
     18 C20          4.3130    -1.9830    -0.6370 ca         1 X0A      -0.146000
     19 Cl22        -4.4350    -2.8830     0.3570 cl         1 X0A      -0.205000
     20 HN04         0.5900     4.4310     0.3580 hn         1 X0A       0.511500
     21 HN0A         2.2410     3.9400     0.2760 hn         1 X0A       0.511500
     22 HN05         1.8320    -1.6470    -0.3390 hn         1 X0A       0.515000
     23 H07         -6.0600    -0.5220     0.0490 ha         1 X0A       0.129000
     24 H08         -5.4430     1.8750    -0.2110 ha         1 X0A       0.134000
     25 H11         -1.9100    -1.5870     0.2700 ha         1 X0A       0.147000
     26 H16          4.0250     0.8810     1.2010 ha         1 X0A       0.129500
     27 H17          6.4820     0.6050     1.3020 ha         1 X0A       0.114000
     28 H18          7.5710    -1.3350     0.1760 ha         1 X0A       0.116000
     29 H19          6.1810    -2.9980    -1.0570 ha         1 X0A       0.114000
     30 H20          3.7160    -2.7140    -1.1770 ha         1 X0A       0.129500
     31 HO21        -2.0800     2.9380    -0.2210 ho         1 X0A       0.526000
     32 N04          1.2700     3.7400     0.0540 nv         1 X0A      -1.064900
     33 N05          2.2980    -0.7720    -0.1030 nu         1 X0A      -0.916900
     34 O21         -3.0610     2.8440    -0.2710 oh         1 X0A      -0.554100
@<TRIPOS>BOND
     1     1    10 ar  
     2     1    11 ar  
     3     2    11 ar  
     4     2    12 ar  
     5     3    10 ar  
     6     3    12 ar  
     7     4     5 ar  
     8     4     9 ar  
     9     4    19 1   
    10     5     6 ar  
    11     5    23 1   
    12     6     7 ar  
    13     6    24 1   
    14     7     8 ar  
    15     7    34 1   
    16     8     9 ar  
    17     8    10 1   
    18     9    25 1   
    19    11    32 1   
    20    12    33 1   
    21    13    14 ar  
    22    13    18 ar  
    23    13    33 1   
    24    14    15 ar  
    25    14    26 1   
    26    15    16 ar  
    27    15    27 1   
    28    16    17 ar  
    29    16    28 1   
    30    17    18 ar  
    31    17    29 1   
    32    18    30 1   
    33    20    32 1   
    34    21    32 1   
    35    22    33 1   
    36    31    34 1   
@<TRIPOS>SUBSTRUCTURE
     1 X0A         1 TEMP              0 ****  ****    0 ROOT
