@<TRIPOS>MOLECULE
X0B
   69    74     1     0     0
SMALL
abcg2


@<TRIPOS>ATOM
      1 O1          -0.0330     2.0910     1.4530 o          1 X0B      -0.698500
      2 C19         -1.0840     1.4490     1.6100 c          1 X0B       0.627500
      3 O           -2.1960     1.8940     1.9600 o          1 X0B      -0.698500
      4 C18         -1.0050    -0.0430     1.3410 cc         1 X0B       0.252500
      5 N3           0.2040    -0.6010     1.0300 nc         1 X0B      -0.578000
      6 C20         -2.0530    -0.9270     1.3750 cd         1 X0B      -0.183300
      7 C21         -3.5150    -0.7170     1.6040 c3         1 X0B       0.017900
      8 C22         -4.2100    -0.2020     0.3420 c3         1 X0B      -0.078400
      9 C23         -5.6900     0.0060     0.5820 c3         1 X0B       0.163600
     10 O24         -6.2600     0.5020    -0.6180 os         1 X0B      -0.342100
     11 C25         -7.5870     0.7360    -0.6660 ca         1 X0B       0.166100
     12 C30         -8.0890     1.2160    -1.8760 ca         1 X0B      -0.181500
     13 C29         -9.4410     1.4730    -2.0160 ca         1 X0B      -0.062500
     14 C28        -10.3350     1.2690    -0.9660 ca         1 X0B      -0.146300
     15 C31        -11.8000     1.5850    -1.1250 c3         1 X0B       0.208100
     16 N4         -12.6420     0.6010    -0.4660 n8         1 X0B      -0.998200
     17 C27         -9.8220     0.7890     0.2320 ca         1 X0B      -0.062500
     18 C26         -8.4670     0.5240     0.3940 ca         1 X0B      -0.181500
     19 S1          -1.4770    -2.5010     0.9820 ss         1 X0B      -0.190400
     20 C17          0.1290    -1.8740     0.8160 cd         1 X0B       0.456900
     21 C14          1.2680    -2.7200     0.4600 ca         1 X0B      -0.101500
     22 C15          1.1720    -4.1140     0.4320 ca         1 X0B      -0.097000
     23 C16          2.2700    -4.8770     0.0860 ca         1 X0B      -0.127000
     24 C11          3.4920    -4.2910    -0.2350 ca         1 X0B      -0.078300
     25 C10          4.6730    -5.1420    -0.6040 c6         1 X0B      -0.027100
     26 C9           5.5820    -4.4140    -1.5780 c6         1 X0B      -0.063400
     27 C8           6.0320    -3.0780    -1.0030 c6         1 X0B      -0.143700
     28 C13          2.4830    -2.1290     0.1410 ca         1 X0B      -0.037000
     29 C12          3.5960    -2.8940    -0.2060 ca         1 X0B      -0.124900
     30 C7           4.8800    -2.2370    -0.5250 ce         1 X0B       0.373900
     31 N2           4.9260    -0.9730    -0.3440 n2         1 X0B      -0.347400
     32 N1           6.0650    -0.3080    -0.5840 nu         1 X0B      -0.584500
     33 C6           6.0830     1.0380    -0.4490 cc         1 X0B       0.659100
     34 S            7.6040     1.8750    -0.7410 ss         1 X0B      -0.094200
     35 C3           6.7830     3.3700    -0.3930 ca         1 X0B      -0.179000
     36 C2           7.2940     4.6580    -0.3980 ca         1 X0B      -0.079000
     37 C1           6.4330     5.6990    -0.0840 ca         1 X0B      -0.122000
     38 N            5.0760     1.7730    -0.1270 nd         1 X0B      -0.535100
     39 C4           5.4400     3.0970    -0.0850 ca         1 X0B       0.134400
     40 C5           4.5910     4.1570     0.2280 ca         1 X0B      -0.051000
     41 C            5.0950     5.4470     0.2260 ca         1 X0B      -0.109000
     42 H211        -3.9790    -1.6540     1.9220 hc         1 X0B       0.053700
     43 H212        -3.6440     0.0010     2.4120 hc         1 X0B       0.053700
     44 H221        -3.7450     0.7400     0.0470 hc         1 X0B       0.067700
     45 H222        -4.0680    -0.9150    -0.4740 hc         1 X0B       0.067700
     46 H231        -6.1650    -0.9400     0.8690 h1         1 X0B       0.031200
     47 H232        -5.8490     0.7170     1.4020 h1         1 X0B       0.031200
     48 H30         -7.4120     1.3780    -2.7070 ha         1 X0B       0.123000
     49 H26         -8.1190     0.1540     1.3490 ha         1 X0B       0.123000
     50 H29         -9.8090     1.8380    -2.9690 ha         1 X0B       0.110000
     51 H311       -12.0090     2.5570    -0.6670 h1         1 X0B       0.026200
     52 H312       -12.0150     1.7100    -2.1960 h1         1 X0B       0.026200
     53 H27        -10.4930     0.6070     1.0620 ha         1 X0B       0.110000
     54 H41N       -13.6080     0.8970    -0.5190 hn         1 X0B       0.390000
     55 H42N       -12.5900    -0.2770    -0.9680 hn         1 X0B       0.390000
     56 H15          0.2440    -4.6130     0.6820 ha         1 X0B       0.116000
     57 H13          2.5670    -1.0510     0.1570 ha         1 X0B       0.177000
     58 H16          2.1790    -5.9560     0.0630 ha         1 X0B       0.100000
     59 H101         5.2330    -5.4030     0.3010 hc         1 X0B       0.044200
     60 H102         4.3290    -6.0850    -1.0320 hc         1 X0B       0.044200
     61 H91C         6.4590    -5.0200    -1.8090 hc         1 X0B       0.041700
     62 H92C         5.0520    -4.2490    -2.5190 hc         1 X0B       0.041700
     63 H81C         6.7180    -3.2480    -0.1650 hc         1 X0B       0.042200
     64 H82C         6.6060    -2.5390    -1.7620 hc         1 X0B       0.042200
     65 HA           6.9150    -0.7880    -0.8510 hn         1 X0B       0.491000
     66 H2           8.3310     4.8500    -0.6390 ha         1 X0B       0.112000
     67 HB           6.8030     6.7150    -0.0830 ha         1 X0B       0.105000
     68 H            4.4400     6.2750     0.4660 ha         1 X0B       0.118000
     69 H5           3.5530     3.9630     0.4650 ha         1 X0B       0.164000
@<TRIPOS>BOND
     1     1     2 1   
     2     2     3 1   
     3     2     4 1   
     4     4     5 1   
     5     4     6 2   
     6     5    20 2   
     7     6     7 1   
     8     6    19 1   
     9     7     8 1   
    10     7    42 1   
    11     7    43 1   
    12     8     9 1   
    13     8    44 1   
    14     8    45 1   
    15     9    10 1   
    16     9    46 1   
    17     9    47 1   
    18    10    11 1   
    19    11    12 ar  
    20    11    18 ar  
    21    12    13 ar  
    22    12    48 1   
    23    13    14 ar  
    24    13    50 1   
    25    14    15 1   
    26    14    17 ar  
    27    15    16 1   
    28    15    51 1   
    29    15    52 1   
    30    16    54 1   
    31    16    55 1   
    32    17    18 ar  
    33    17    53 1   
    34    18    49 1   
    35    19    20 1   
    36    20    21 1   
    37    21    22 ar  
    38    21    28 ar  
    39    22    23 ar  
    40    22    56 1   
    41    23    24 ar  
    42    23    58 1   
    43    24    25 1   
    44    24    29 ar  
    45    25    26 1   
    46    25    59 1   
    47    25    60 1   
    48    26    27 1   
    49    26    61 1   
    50    26    62 1   
    51    27    30 1   
    52    27    63 1   
    53    27    64 1   
    54    28    29 ar  
    55    28    57 1   
    56    29    30 1   
    57    30    31 2   
    58    31    32 1   
    59    32    33 1   
    60    32    65 1   
    61    33    34 1   
    62    33    38 2   
    63    34    35 1   
    64    35    36 ar  
    65    35    39 ar  
    66    36    37 ar  
    67    36    66 1   
    68    37    41 ar  
    69    37    67 1   
    70    38    39 1   
    71    39    40 ar  
    72    40    41 ar  
    73    40    69 1   
    74    41    68 1   
@<TRIPOS>SUBSTRUCTURE
     1 X0B         1 TEMP              0 ****  ****    0 ROOT
