@<TRIPOS>MOLECULE
X0B
   69    74     1     0     0
SMALL
No Charge or Current Charge


@<TRIPOS>ATOM
      1 O1          -0.2320     2.4710     0.8830 o          1 X0B      -0.698500
      2 C19         -1.2160     1.7640     1.0840 c          1 X0B       0.627500
      3 O           -2.2960     2.2700     1.3650 o          1 X0B      -0.698500
      4 C18         -1.0650     0.2430     0.9730 cc         1 X0B       0.252500
      5 N3           0.1460    -0.3540     0.6440 nc         1 X0B      -0.578000
      6 C20         -2.1050    -0.6620     1.1820 cd         1 X0B      -0.183300
      7 C21         -3.5530    -0.4380     1.5570 c3         1 X0B       0.017900
      8 C22         -4.4420    -0.1550     0.3270 c3         1 X0B      -0.078400
      9 C23         -5.9220     0.0640     0.6930 c3         1 X0B       0.163600
     10 O24         -6.6430     0.3000    -0.5270 os         1 X0B      -0.342100
     11 C25         -8.0030     0.5320    -0.5440 ca         1 X0B       0.166100
     12 C30         -8.6150     0.7520    -1.7870 ca         1 X0B      -0.181500
     13 C29         -9.9980     0.9940    -1.8690 ca         1 X0B      -0.062500
     14 C28        -10.7830     1.0180    -0.6990 ca         1 X0B      -0.146300
     15 C31        -12.2770     1.2890    -0.7820 c3         1 X0B       0.208100
     16 N4         -13.0410     0.0330    -0.8330 n8         1 X0B      -0.998200
     17 C27        -10.1690     0.7980     0.5490 ca         1 X0B      -0.062500
     18 C26         -8.7860     0.5560     0.6310 ca         1 X0B      -0.181500
     19 S1          -1.5590    -2.3140     0.9510 ss         1 X0B      -0.190400
     20 C17          0.0400    -1.6730     0.5970 cd         1 X0B       0.456900
     21 C14          1.1920    -2.5490     0.2670 ca         1 X0B      -0.101500
     22 C15          1.0470    -3.9520     0.2170 ca         1 X0B      -0.097000
     23 C16          2.1400    -4.7710    -0.0970 ca         1 X0B      -0.127000
     24 C11          3.4000    -4.2140    -0.3710 ca         1 X0B      -0.078300
     25 C10          4.5660    -5.1430    -0.7100 c6         1 X0B      -0.027100
     26 C9           5.6110    -4.4520    -1.6030 c6         1 X0B      -0.063400
     27 C8           6.0960    -3.1390    -0.9570 c6         1 X0B      -0.143700
     28 C13          2.4650    -1.9940    -0.0040 ca         1 X0B      -0.037000
     29 C12          3.5780    -2.8100    -0.3240 ca         1 X0B      -0.124900
     30 C7           4.9310    -2.1990    -0.5900 ce         1 X0B       0.373900
     31 N2           5.0900    -0.9060    -0.4910 n2         1 X0B      -0.347400
     32 N1           6.3260    -0.3170    -0.3020 nu         1 X0B      -0.584500
     33 C6           6.5530     1.0460    -0.1960 cc         1 X0B       0.659100
     34 S            8.1960     1.6850     0.0510 ss         1 X0B      -0.094200
     35 C3           7.4410     3.2670     0.0440 ca         1 X0B      -0.179000
     36 C2           8.1040     4.4940     0.1990 ca         1 X0B      -0.079000
     37 C1           7.3430     5.6770     0.1690 ca         1 X0B      -0.122000
     38 N            5.5380     1.9160    -0.2770 nd         1 X0B      -0.535100
     39 C4           6.0730     3.1900    -0.1360 ca         1 X0B       0.134400
     40 C5           5.3060     4.3670    -0.1670 ca         1 X0B      -0.051000
     41 C            5.9450     5.6150    -0.0140 ca         1 X0B      -0.109000
     42 H211        -3.9390    -1.3320     2.0640 hc         1 X0B       0.053700
     43 H212        -3.6540     0.3710     2.2890 hc         1 X0B       0.053700
     44 H221        -4.0680     0.7330    -0.1960 hc         1 X0B       0.067700
     45 H222        -4.3660    -0.9970    -0.3710 hc         1 X0B       0.067700
     46 H231        -6.3080    -0.8270     1.2050 h1         1 X0B       0.031200
     47 H232        -6.0090     0.9260     1.3680 h1         1 X0B       0.031200
     48 H30         -8.0150     0.7340    -2.6930 ha         1 X0B       0.123000
     49 H26         -8.3430     0.3900     1.6080 ha         1 X0B       0.123000
     50 H29        -10.4580     1.1640    -2.8400 ha         1 X0B       0.110000
     51 H311       -12.6030     1.8670     0.0930 h1         1 X0B       0.026200
     52 H312       -12.5020     1.8750    -1.6840 h1         1 X0B       0.026200
     53 H27        -10.7670     0.8140     1.4590 ha         1 X0B       0.110000
     54 H41N       -14.0310     0.2540    -0.9870 hn         1 X0B       0.390000
     55 H42N       -12.7680    -0.4780    -1.6800 hn         1 X0B       0.390000
     56 H15          0.0890    -4.4240     0.4190 ha         1 X0B       0.116000
     57 H13          2.5880    -0.9130     0.0370 ha         1 X0B       0.177000
     58 H16          2.0050    -5.8500    -0.1280 ha         1 X0B       0.100000
     59 H101         5.0410    -5.4840     0.2210 hc         1 X0B       0.044200
     60 H102         4.1970    -6.0460    -1.2170 hc         1 X0B       0.044200
     61 H91C         6.4620    -5.1250    -1.7790 hc         1 X0B       0.041700
     62 H92C         5.1690    -4.2390    -2.5860 hc         1 X0B       0.041700
     63 H81C         6.6870    -3.3570    -0.0570 hc         1 X0B       0.042200
     64 H82C         6.7720    -2.6430    -1.6670 hc         1 X0B       0.042200
     65 HA           7.1890    -0.8590    -0.2170 hn         1 X0B       0.491000
     66 H2           9.1820     4.5310     0.3390 ha         1 X0B       0.112000
     67 HB           7.8330     6.6410     0.2860 ha         1 X0B       0.105000
     68 H            5.3580     6.5300    -0.0370 ha         1 X0B       0.118000
     69 H5           4.2290     4.3120    -0.3080 ha         1 X0B       0.164000
@<TRIPOS>BOND
     1     1     2 1   
     2     2     3 1   
     3     2     4 1   
     4     4     5 1   
     5     4     6 2   
     6     5    20 2   
     7     6     7 1   
     8     6    19 1   
     9     7     8 1   
    10     7    42 1   
    11     7    43 1   
    12     8     9 1   
    13     8    44 1   
    14     8    45 1   
    15     9    10 1   
    16     9    46 1   
    17     9    47 1   
    18    10    11 1   
    19    11    12 ar  
    20    11    18 ar  
    21    12    13 ar  
    22    12    48 1   
    23    13    14 ar  
    24    13    50 1   
    25    14    15 1   
    26    14    17 ar  
    27    15    16 1   
    28    15    51 1   
    29    15    52 1   
    30    16    54 1   
    31    16    55 1   
    32    17    18 ar  
    33    17    53 1   
    34    18    49 1   
    35    19    20 1   
    36    20    21 1   
    37    21    22 ar  
    38    21    28 ar  
    39    22    23 ar  
    40    22    56 1   
    41    23    24 ar  
    42    23    58 1   
    43    24    25 1   
    44    24    29 ar  
    45    25    26 1   
    46    25    59 1   
    47    25    60 1   
    48    26    27 1   
    49    26    61 1   
    50    26    62 1   
    51    27    30 1   
    52    27    63 1   
    53    27    64 1   
    54    28    29 ar  
    55    28    57 1   
    56    29    30 1   
    57    30    31 2   
    58    31    32 1   
    59    32    33 1   
    60    32    65 1   
    61    33    34 1   
    62    33    38 2   
    63    34    35 1   
    64    35    36 ar  
    65    35    39 ar  
    66    36    37 ar  
    67    36    66 1   
    68    37    41 ar  
    69    37    67 1   
    70    38    39 1   
    71    39    40 ar  
    72    40    41 ar  
    73    40    69 1   
    74    41    68 1   
@<TRIPOS>SUBSTRUCTURE
     1 X0B         1 TEMP              0 ****  ****    0 ROOT
