@<TRIPOS>MOLECULE
X0D
   62    63     1     0     0
SMALL
abcg2


@<TRIPOS>ATOM
      1 O2           2.7300   -24.2860   -61.7440 o          1 X0D      -0.711500
      2 C21          3.7440   -23.9280   -61.0980 c          1 X0D       0.708000
      3 O1           4.6040   -23.0830   -61.4380 o          1 X0D      -0.711500
      4 C20          3.9040   -24.5870   -59.6950 c3         1 X0D      -0.025300
      5 C22          2.8860   -23.9320   -58.7480 c3         1 X0D       0.095600
      6 S23          2.7420   -24.7080   -57.0980 ss         1 X0D      -0.513000
      7 C24          3.4250   -23.4390   -55.9750 c3         1 X0D       0.083600
      8 C25          4.9480   -23.3740   -55.8410 c3         1 X0D      -0.064700
      9 C27          5.5240   -24.6650   -55.2650 c3         1 X0D      -0.087100
     10 C26          5.3240   -22.1690   -54.9740 c3         1 X0D      -0.087100
     11 N19          5.2560   -24.4410   -59.2040 ns         1 X0D      -0.455900
     12 C19          5.9840   -25.4480   -58.7170 c          1 X0D       0.644100
     13 O19          5.6070   -26.6110   -58.6200 o          1 X0D      -0.643100
     14 N15          7.3050   -25.1100   -58.2450 n          1 X0D      -0.388400
     15 C16          8.0400   -26.2250   -57.6150 c3         1 X0D       0.104000
     16 C17          8.8040   -27.0800   -58.6180 c3         1 X0D      -0.095400
     17 C18          9.5400   -28.2220   -57.9230 c3         1 X0D      -0.086100
     18 C15          7.8850   -23.8740   -58.3600 c          1 X0D       0.609700
     19 O15          7.3790   -22.9180   -58.9450 o          1 X0D      -0.558100
     20 C11          9.2130   -23.6630   -57.6870 ca         1 X0D      -0.125600
     21 C10          9.2160   -23.1440   -56.4000 ca         1 X0D      -0.055000
     22 C12         10.4130   -23.8840   -58.3580 ca         1 X0D      -0.063000
     23 C13         11.6180   -23.6000   -57.7220 ca         1 X0D      -0.122000
     24 C14         11.6330   -23.0930   -56.4310 ca         1 X0D      -0.082000
     25 C9          10.4270   -22.8550   -55.7560 ca         1 X0D       0.006000
     26 C8          10.4010   -22.3260   -54.4380 cg         1 X0D      -0.055000
     27 C7          10.3260   -21.8690   -53.3230 ch         1 X0D      -0.132000
     28 C1          10.2030   -21.3170   -52.0240 ca         1 X0D      -0.006000
     29 C6          11.3190   -20.9660   -51.2480 ca         1 X0D      -0.047000
     30 C5          11.1760   -20.4190   -49.9840 ca         1 X0D      -0.170000
     31 C4           9.8970   -20.2220   -49.4920 ca         1 X0D       0.192000
     32 F4           9.7440   -19.6860   -48.2620 f          1 X0D      -0.178000
     33 C3           8.7580   -20.5500   -50.2080 ca         1 X0D      -0.194000
     34 C2           8.9400   -21.0940   -51.4630 ca         1 X0D       0.213000
     35 F2           7.8470   -21.4220   -52.1810 f          1 X0D      -0.159000
     36 H20          3.6820   -25.6470   -59.7840 h1         1 X0D       0.080700
     37 H221         3.1380   -22.8810   -58.5980 h1         1 X0D       0.072700
     38 H222         1.9040   -23.9830   -59.2140 h1         1 X0D       0.072700
     39 H19          5.7190   -23.5510   -59.3450 hn         1 X0D       0.363500
     40 H241         3.0240   -22.4740   -56.2910 h1         1 X0D       0.052700
     41 H242         2.9820   -23.6720   -55.0030 h1         1 X0D       0.052700
     42 H25          5.3670   -23.2160   -56.8380 hc         1 X0D       0.066700
     43 H271         6.6130   -24.6140   -55.2070 hc         1 X0D       0.030867
     44 H272         5.1400   -24.8350   -54.2550 hc         1 X0D       0.030867
     45 H273         5.2590   -25.5260   -55.8780 hc         1 X0D       0.030867
     46 H261         6.4070   -22.0900   -54.8650 hc         1 X0D       0.030867
     47 H262         4.9580   -21.2370   -55.4120 hc         1 X0D       0.030867
     48 H263         4.8950   -22.2640   -53.9720 hc         1 X0D       0.030867
     49 H161         8.7200   -25.8050   -56.8790 h1         1 X0D       0.057700
     50 H162         7.3110   -26.8290   -57.0830 h1         1 X0D       0.057700
     51 H171         8.1030   -27.4760   -59.3560 hc         1 X0D       0.052200
     52 H172         9.5160   -26.4540   -59.1590 hc         1 X0D       0.052200
     53 H181        10.0840   -28.8330   -58.6450 hc         1 X0D       0.028700
     54 H182        10.2610   -27.8380   -57.1970 hc         1 X0D       0.028700
     55 H183         8.8410   -28.8720   -57.3910 hc         1 X0D       0.028700
     56 H10          8.2850   -22.9630   -55.8830 ha         1 X0D       0.137000
     57 H12         10.4090   -24.2740   -59.3670 ha         1 X0D       0.130000
     58 H13         12.5510   -23.7750   -58.2400 ha         1 X0D       0.114000
     59 H14         12.5720   -22.8740   -55.9390 ha         1 X0D       0.113000
     60 H6          12.3070   -21.1290   -51.6560 ha         1 X0D       0.127000
     61 H5          12.0350   -20.1460   -49.3870 ha         1 X0D       0.135000
     62 H3           7.7680   -20.3900   -49.8050 ha         1 X0D       0.152000
@<TRIPOS>BOND
     1     1     2 1   
     2     2     3 1   
     3     2     4 1   
     4     4     5 1   
     5     4    11 1   
     6     4    36 1   
     7     5     6 1   
     8     5    37 1   
     9     5    38 1   
    10     6     7 1   
    11     7     8 1   
    12     7    40 1   
    13     7    41 1   
    14     8     9 1   
    15     8    10 1   
    16     8    42 1   
    17     9    43 1   
    18     9    44 1   
    19     9    45 1   
    20    10    46 1   
    21    10    47 1   
    22    10    48 1   
    23    11    12 1   
    24    11    39 1   
    25    12    13 2   
    26    12    14 1   
    27    14    15 1   
    28    14    18 1   
    29    15    16 1   
    30    15    49 1   
    31    15    50 1   
    32    16    17 1   
    33    16    51 1   
    34    16    52 1   
    35    17    53 1   
    36    17    54 1   
    37    17    55 1   
    38    18    19 2   
    39    18    20 1   
    40    20    21 ar  
    41    20    22 ar  
    42    21    25 ar  
    43    21    56 1   
    44    22    23 ar  
    45    22    57 1   
    46    23    24 ar  
    47    23    58 1   
    48    24    25 ar  
    49    24    59 1   
    50    25    26 1   
    51    26    27 3   
    52    27    28 1   
    53    28    29 ar  
    54    28    34 ar  
    55    29    30 ar  
    56    29    60 1   
    57    30    31 ar  
    58    30    61 1   
    59    31    32 1   
    60    31    33 ar  
    61    33    34 ar  
    62    33    62 1   
    63    34    35 1   
@<TRIPOS>SUBSTRUCTURE
     1 X0D         1 TEMP              0 ****  ****    0 ROOT
