@<TRIPOS>MOLECULE
X0D
   62    63     1     0     0
SMALL
No Charge or Current Charge


@<TRIPOS>ATOM
      1 O2           3.0660   -25.5430   -61.5200 o          1 X0D      -0.711500
      2 C21          3.6090   -24.6270   -60.9190 c          1 X0D       0.708000
      3 O1           3.9950   -23.6000   -61.4610 o          1 X0D      -0.711500
      4 C20          3.8860   -24.8060   -59.4020 c3         1 X0D      -0.025300
      5 C22          3.1200   -23.7330   -58.5930 c3         1 X0D       0.095600
      6 S23          3.0450   -24.1350   -56.7790 ss         1 X0D      -0.513000
      7 C24          3.8310   -22.6220   -56.0460 c3         1 X0D       0.083600
      8 C25          5.3530   -22.8060   -55.8170 c3         1 X0D      -0.064700
      9 C27          5.6560   -23.9070   -54.7710 c3         1 X0D      -0.087100
     10 C26          6.0130   -21.4670   -55.4180 c3         1 X0D      -0.087100
     11 N19          5.3500   -24.7650   -59.1520 ns         1 X0D      -0.455900
     12 C19          6.0620   -25.6190   -58.3450 c          1 X0D       0.644100
     13 O19          5.5220   -26.5570   -57.7770 o          1 X0D      -0.643100
     14 N15          7.4370   -25.3420   -58.2030 n          1 X0D      -0.388400
     15 C16          8.2360   -26.2800   -57.3630 c3         1 X0D       0.104000
     16 C17          8.7090   -27.5210   -58.1480 c3         1 X0D      -0.095400
     17 C18          9.5490   -28.4880   -57.2920 c3         1 X0D      -0.086100
     18 C15          8.1340   -24.3390   -58.9100 c          1 X0D       0.609700
     19 O15          7.8050   -24.0240   -60.0470 o          1 X0D      -0.558100
     20 C11          9.2080   -23.5460   -58.1960 ca         1 X0D      -0.125600
     21 C10          9.1430   -23.3000   -56.8060 ca         1 X0D      -0.055000
     22 C12         10.2610   -22.9670   -58.9380 ca         1 X0D      -0.063000
     23 C13         11.2460   -22.1960   -58.2970 ca         1 X0D      -0.122000
     24 C14         11.1810   -21.9770   -56.9110 ca         1 X0D      -0.082000
     25 C9          10.1250   -22.5260   -56.1650 ca         1 X0D       0.006000
     26 C8          10.0320   -22.2870   -54.7540 cg         1 X0D      -0.055000
     27 C7           9.9260   -22.0880   -53.5550 ch         1 X0D      -0.132000
     28 C1           9.7790   -21.8560   -52.1550 ca         1 X0D      -0.006000
     29 C6          10.9170   -21.5680   -51.3750 ca         1 X0D      -0.047000
     30 C5          10.7860   -21.3380   -49.9940 ca         1 X0D      -0.170000
     31 C4           9.5200   -21.3950   -49.3900 ca         1 X0D       0.192000
     32 F4           9.3990   -21.1730   -48.0640 f          1 X0D      -0.178000
     33 C3           8.3820   -21.6800   -50.1550 ca         1 X0D      -0.194000
     34 C2           8.5100   -21.9100   -51.5340 ca         1 X0D       0.213000
     35 F2           7.3980   -22.1850   -52.2560 f          1 X0D      -0.159000
     36 H20          3.4980   -25.7940   -59.1240 h1         1 X0D       0.080700
     37 H221         3.5890   -22.7520   -58.7470 h1         1 X0D       0.072700
     38 H222         2.0900   -23.6720   -58.9680 h1         1 X0D       0.072700
     39 H19          5.9040   -24.0870   -59.6670 hn         1 X0D       0.363500
     40 H241         3.6510   -21.7660   -56.7090 h1         1 X0D       0.052700
     41 H242         3.3470   -22.4060   -55.0840 h1         1 X0D       0.052700
     42 H25          5.7990   -23.1130   -56.7700 hc         1 X0D       0.066700
     43 H271         6.7320   -23.9780   -54.5720 hc         1 X0D       0.030867
     44 H272         5.1530   -23.6900   -53.8210 hc         1 X0D       0.030867
     45 H273         5.3180   -24.8890   -55.1220 hc         1 X0D       0.030867
     46 H261         7.0960   -21.5860   -55.2970 hc         1 X0D       0.030867
     47 H262         5.8420   -20.7060   -56.1890 hc         1 X0D       0.030867
     48 H263         5.6020   -21.0960   -54.4710 hc         1 X0D       0.030867
     49 H161         9.1290   -25.7870   -56.9630 h1         1 X0D       0.057700
     50 H162         7.6430   -26.5970   -56.4950 h1         1 X0D       0.057700
     51 H171         7.8390   -28.0570   -58.5430 hc         1 X0D       0.052200
     52 H172         9.3050   -27.1970   -59.0100 hc         1 X0D       0.052200
     53 H181         9.8630   -29.3530   -57.8890 hc         1 X0D       0.028700
     54 H182        10.4490   -27.9890   -56.9110 hc         1 X0D       0.028700
     55 H183         8.9670   -28.8540   -56.4370 hc         1 X0D       0.028700
     56 H10          8.3200   -23.7000   -56.2210 ha         1 X0D       0.137000
     57 H12         10.3210   -23.1210   -60.0140 ha         1 X0D       0.130000
     58 H13         12.0580   -21.7630   -58.8770 ha         1 X0D       0.114000
     59 H14         11.9440   -21.3750   -56.4220 ha         1 X0D       0.113000
     60 H6          11.9010   -21.5230   -51.8390 ha         1 X0D       0.127000
     61 H5          11.6630   -21.1160   -49.3910 ha         1 X0D       0.135000
     62 H3           7.4050   -21.7230   -49.6840 ha         1 X0D       0.152000
@<TRIPOS>BOND
     1     1     2 1   
     2     2     3 1   
     3     2     4 1   
     4     4     5 1   
     5     4    11 1   
     6     4    36 1   
     7     5     6 1   
     8     5    37 1   
     9     5    38 1   
    10     6     7 1   
    11     7     8 1   
    12     7    40 1   
    13     7    41 1   
    14     8     9 1   
    15     8    10 1   
    16     8    42 1   
    17     9    43 1   
    18     9    44 1   
    19     9    45 1   
    20    10    46 1   
    21    10    47 1   
    22    10    48 1   
    23    11    12 1   
    24    11    39 1   
    25    12    13 2   
    26    12    14 1   
    27    14    15 1   
    28    14    18 1   
    29    15    16 1   
    30    15    49 1   
    31    15    50 1   
    32    16    17 1   
    33    16    51 1   
    34    16    52 1   
    35    17    53 1   
    36    17    54 1   
    37    17    55 1   
    38    18    19 2   
    39    18    20 1   
    40    20    21 ar  
    41    20    22 ar  
    42    21    25 ar  
    43    21    56 1   
    44    22    23 ar  
    45    22    57 1   
    46    23    24 ar  
    47    23    58 1   
    48    24    25 ar  
    49    24    59 1   
    50    25    26 1   
    51    26    27 3   
    52    27    28 1   
    53    28    29 ar  
    54    28    34 ar  
    55    29    30 ar  
    56    29    60 1   
    57    30    31 ar  
    58    30    61 1   
    59    31    32 1   
    60    31    33 ar  
    61    33    34 ar  
    62    33    62 1   
    63    34    35 1   
@<TRIPOS>SUBSTRUCTURE
     1 X0D         1 TEMP              0 ****  ****    0 ROOT
