@<TRIPOS>MOLECULE
X0G
   30    32     1     0     0
SMALL
No Charge or Current Charge


@<TRIPOS>ATOM
      1 C4          19.0080    39.9080     1.1740 c6         1 X0G       0.127300
      2 C5          18.7820    38.3120     3.0770 c3         1 X0G       0.139500
      3 C6          18.1910    37.0330     3.6530 cc         1 X0G       0.479300
      4 C7          17.0070    35.5330     4.5070 cd         1 X0G       0.587300
      5 C8          15.8510    34.8340     5.1250 cx         1 X0G      -0.187000
      6 C9          14.4720    34.8920     4.4990 cx         1 X0G      -0.103900
      7 C10         15.2500    33.5980     4.4860 cx         1 X0G      -0.103900
      8 N1          18.5480    38.5540     1.6160 n3         1 X0G      -0.705600
      9 N2          18.1570    34.9150     4.2940 nc         1 X0G      -0.376300
     10 C3          18.7300    40.1460    -0.3400 c6         1 X0G       0.154100
     11 N3          16.9760    36.8550     4.1400 nd         1 X0G      -0.701000
     12 C1          19.1150    37.4860     0.7310 c6         1 X0G       0.127300
     13 C2          18.8380    37.7770    -0.7740 c6         1 X0G       0.154100
     14 O1          19.3290    39.0910    -1.1320 os         1 X0G      -0.449000
     15 O2          18.9700    35.9150     3.7170 os         1 X0G      -0.098700
     16 H7          20.0870    40.0230     1.3550 h1         1 X0G       0.044450
     17 H8          18.4990    40.6930     1.7530 h1         1 X0G       0.044450
     18 H9          19.8600    38.3040     3.2850 h1         1 X0G       0.064200
     19 H10         18.3610    39.1450     3.6560 h1         1 X0G       0.064200
     20 H11         15.8970    34.8510     6.2100 hc         1 X0G       0.102700
     21 H12         14.3590    35.4240     3.5560 hc         1 X0G       0.081200
     22 H13         13.6150    34.9640     5.1650 hc         1 X0G       0.081200
     23 H14         15.6560    33.2630     3.5340 hc         1 X0G       0.081200
     24 H15         14.9160    32.7980     5.1430 hc         1 X0G       0.081200
     25 H5          19.1500    41.1130    -0.6510 h1         1 X0G       0.054950
     26 H6          17.6460    40.1680    -0.5240 h1         1 X0G       0.054950
     27 H2          18.6820    36.5070     0.9800 h1         1 X0G       0.044450
     28 H1          20.2030    37.4060     0.8790 h1         1 X0G       0.044450
     29 H4          17.7570    37.7270    -0.9720 h1         1 X0G       0.054950
     30 H3          19.3360    37.0230    -1.3990 h1         1 X0G       0.054950
@<TRIPOS>BOND
     1     1     8 1   
     2     1    10 1   
     3     1    16 1   
     4     1    17 1   
     5     2     3 1   
     6     2     8 1   
     7     2    18 1   
     8     2    19 1   
     9     3    11 2   
    10     3    15 1   
    11     4     5 1   
    12     4     9 2   
    13     4    11 1   
    14     5     6 1   
    15     5     7 1   
    16     5    20 1   
    17     6     7 1   
    18     6    21 1   
    19     6    22 1   
    20     7    23 1   
    21     7    24 1   
    22     8    12 1   
    23     9    15 1   
    24    10    14 1   
    25    10    25 1   
    26    10    26 1   
    27    12    13 1   
    28    12    27 1   
    29    12    28 1   
    30    13    14 1   
    31    13    29 1   
    32    13    30 1   
@<TRIPOS>SUBSTRUCTURE
     1 X0G         1 TEMP              0 ****  ****    0 ROOT
