@<TRIPOS>MOLECULE
X0H
   27    28     1     0     0
SMALL
abcg2


@<TRIPOS>ATOM
      1 C13         18.3170   -21.7240    -0.7810 ca         1 X0H      -0.056000
      2 C15         19.5660   -22.5670     1.0880 ca         1 X0H      -0.051000
      3 C01         22.6110   -26.0580     3.0560 c3         1 X0H       0.151900
      4 O02         21.7040   -25.0660     3.5390 os         1 X0H      -0.447100
      5 C03         20.4710   -25.0800     3.0600 c          1 X0H       0.588100
      6 O04         20.0710   -25.8690     2.2440 o          1 X0H      -0.467000
      7 C05         19.6270   -23.9970     3.6950 c3         1 X0H      -0.109200
      8 C06         18.3570   -23.7580     2.9370 cc         1 X0H       0.028600
      9 C07         17.1790   -24.1900     3.4350 cd         1 X0H      -0.280200
     10 C08         15.9140   -23.9950     2.7480 c          1 X0H       0.566200
     11 O09         14.8340   -24.3810     3.1730 o          1 X0H      -0.549000
     12 N10         16.0140   -23.3300     1.5560 ns         1 X0H      -0.374100
     13 C11         17.1750   -22.8610     0.9990 ca         1 X0H       0.104600
     14 C12         17.1460   -22.1950    -0.2300 ca         1 X0H      -0.167000
     15 C14         19.5350   -21.9070    -0.1210 ca         1 X0H      -0.146000
     16 C16         18.3910   -23.0580     1.6750 ca         1 X0H      -0.120800
     17 H1          18.2890   -21.2080    -1.7310 ha         1 X0H       0.117000
     18 H2          20.5160   -22.6930     1.5890 ha         1 X0H       0.114000
     19 H3          23.5530   -25.8730     3.5640 h1         1 X0H       0.050367
     20 H4          22.2640   -27.0640     3.2910 h1         1 X0H       0.050367
     21 H5          22.7570   -25.9700     1.9800 h1         1 X0H       0.050367
     22 H6          20.2110   -23.0800     3.7990 hc         1 X0H       0.084700
     23 H7          19.3940   -24.3200     4.7140 hc         1 X0H       0.084700
     24 H8          17.1390   -24.7120     4.3830 ha         1 X0H       0.207000
     25 H9          15.1490   -23.1780     1.0510 hn         1 X0H       0.327500
     26 H10         16.2000   -22.0530    -0.7390 ha         1 X0H       0.120000
     27 H11         20.4510   -21.5330    -0.5580 ha         1 X0H       0.119000
@<TRIPOS>BOND
     1     1    14 ar  
     2     1    15 ar  
     3     1    17 1   
     4     2    15 ar  
     5     2    16 ar  
     6     2    18 1   
     7     3     4 1   
     8     3    19 1   
     9     3    20 1   
    10     3    21 1   
    11     4     5 1   
    12     5     6 2   
    13     5     7 1   
    14     7     8 1   
    15     7    22 1   
    16     7    23 1   
    17     8     9 2   
    18     8    16 1   
    19     9    10 1   
    20     9    24 1   
    21    10    11 2   
    22    10    12 1   
    23    12    13 1   
    24    12    25 1   
    25    13    14 ar  
    26    13    16 ar  
    27    14    26 1   
    28    15    27 1   
@<TRIPOS>SUBSTRUCTURE
     1 X0H         1 TEMP              0 ****  ****    0 ROOT
