@<TRIPOS>MOLECULE
X0H
   27    28     1     0     0
SMALL
No Charge or Current Charge


@<TRIPOS>ATOM
      1 C13         18.5310   -21.7380    -0.7440 ca         1 X0H      -0.056000
      2 C15         19.6380   -22.6010     1.2480 ca         1 X0H      -0.051000
      3 C01         22.5490   -25.8200     2.5740 c3         1 X0H       0.151900
      4 O02         21.6280   -24.8200     3.0480 os         1 X0H      -0.447100
      5 C03         20.3780   -25.2280     3.4390 c          1 X0H       0.588100
      6 O04         20.0050   -26.3930     3.4520 o          1 X0H      -0.467000
      7 C05         19.5220   -24.0610     3.9300 c3         1 X0H      -0.109200
      8 C06         18.3240   -23.7890     3.0500 cc         1 X0H       0.028600
      9 C07         17.0530   -24.2070     3.4210 cd         1 X0H      -0.280200
     10 C08         15.8210   -24.0030     2.6380 c          1 X0H       0.566200
     11 O09         14.7160   -24.3830     2.9920 o          1 X0H      -0.549000
     12 N10         16.0240   -23.3440     1.4630 ns         1 X0H      -0.374100
     13 C11         17.2460   -22.8740     0.9780 ca         1 X0H       0.104600
     14 C12         17.3030   -22.2090    -0.2580 ca         1 X0H      -0.167000
     15 C14         19.6970   -21.9350     0.0110 ca         1 X0H      -0.146000
     16 C16         18.4070   -23.0830     1.7510 ca         1 X0H      -0.120800
     17 H1          18.5800   -21.2220    -1.7010 ha         1 X0H       0.117000
     18 H2          20.5620   -22.7330     1.8030 ha         1 X0H       0.114000
     19 H3          23.5040   -25.3570     2.2930 h1         1 X0H       0.050367
     20 H4          22.7500   -26.5690     3.3510 h1         1 X0H       0.050367
     21 H5          22.1480   -26.3340     1.6900 h1         1 X0H       0.050367
     22 H6          20.1370   -23.1580     4.0050 hc         1 X0H       0.084700
     23 H7          19.1770   -24.3130     4.9390 hc         1 X0H       0.084700
     24 H8          16.8850   -24.7370     4.3510 ha         1 X0H       0.207000
     25 H9          15.2030   -23.1830     0.8940 hn         1 X0H       0.327500
     26 H10         16.3980   -22.0570    -0.8410 ha         1 X0H       0.120000
     27 H11         20.6510   -21.5710    -0.3620 ha         1 X0H       0.119000
@<TRIPOS>BOND
     1     1    14 ar  
     2     1    15 ar  
     3     1    17 1   
     4     2    15 ar  
     5     2    16 ar  
     6     2    18 1   
     7     3     4 1   
     8     3    19 1   
     9     3    20 1   
    10     3    21 1   
    11     4     5 1   
    12     5     6 2   
    13     5     7 1   
    14     7     8 1   
    15     7    22 1   
    16     7    23 1   
    17     8     9 2   
    18     8    16 1   
    19     9    10 1   
    20     9    24 1   
    21    10    11 2   
    22    10    12 1   
    23    12    13 1   
    24    12    25 1   
    25    13    14 ar  
    26    13    16 ar  
    27    14    26 1   
    28    15    27 1   
@<TRIPOS>SUBSTRUCTURE
     1 X0H         1 TEMP              0 ****  ****    0 ROOT
