@<TRIPOS>MOLECULE
X0I
   49    51     1     0     0
SMALL
No Charge or Current Charge


@<TRIPOS>ATOM
      1 N12         16.9700   116.6440    12.6080 ns         1 X0I      -0.513900
      2 C13         16.0330   115.5690    12.2540 c5         1 X0I       0.104700
      3 C15         14.7330   113.7950    13.2330 c5         1 X0I      -0.077900
      4 C17         16.8980   114.2930    12.1560 c5         1 X0I      -0.097400
      5 C24         14.4010   121.4240    15.6180 ca         1 X0I      -0.090500
      6 C26         13.6030   121.9780    19.9400 ca         1 X0I       0.158000
      7 C28         12.2820   121.7780    20.3760 ca         1 X0I       0.092000
      8 C02         11.3420   121.2140    19.4960 ca         1 X0I       0.158000
      9 C03         11.7200   120.8530    18.1920 ca         1 X0I      -0.135500
     10 C04         13.0480   121.0470    17.7340 cp         1 X0I       0.010000
     11 C05         13.4510   120.6630    16.3440 cp         1 X0I      -0.037000
     12 C06         12.8980   119.5220    15.7090 ca         1 X0I      -0.090500
     13 C07         13.2770   119.1600    14.4060 ca         1 X0I      -0.087500
     14 C08         14.2190   119.9300    13.6970 ca         1 X0I      -0.096300
     15 C09         14.6330   119.5370    12.2780 c3         1 X0I       0.118000
     16 C11         16.5660   117.9580    12.6400 c          1 X0I       0.655100
     17 C14         15.2270   115.2410    13.5370 c5         1 X0I      -0.097400
     18 C16         15.8000   113.1980    12.2540 c5         1 X0I      -0.077900
     19 C19         13.4160   119.5690    11.3050 c          1 X0I       0.573100
     20 C23         14.7800   121.0640    14.3140 ca         1 X0I      -0.087500
     21 C25         13.9820   121.6180    18.6360 ca         1 X0I      -0.135500
     22 F27         14.5210   122.5160    20.7760 f          1 X0I      -0.157500
     23 F29         11.9170   122.1260    21.6340 f          1 X0I      -0.142000
     24 N10         15.2720   118.2080    12.2710 ns         1 X0I      -0.518900
     25 O18         17.3380   118.8380    12.9720 o          1 X0I      -0.647100
     26 O22         12.9870   118.5790    10.7180 o          1 X0I      -0.626100
     27 H1          17.9320   116.4780    12.8730 hn         1 X0I       0.327500
     28 H2          15.4200   115.7440    11.3580 h1         1 X0I       0.060700
     29 H3          13.7420   113.8060    12.7630 hc         1 X0I       0.047700
     30 H4          14.6400   113.2030    14.1510 hc         1 X0I       0.047700
     31 H5          17.4640   114.2370    11.2190 hc         1 X0I       0.050450
     32 H6          17.6160   114.2050    12.9820 hc         1 X0I       0.050450
     33 H7          14.8400   122.3130    16.0640 ha         1 X0I       0.119000
     34 H8          10.9690   120.4320    17.5280 ha         1 X0I       0.142500
     35 H9          12.1790   118.9010    16.2370 ha         1 X0I       0.119000
     36 H10         12.8380   118.2750    13.9490 ha         1 X0I       0.115500
     37 H11         15.3530   120.2710    11.8930 h1         1 X0I       0.089700
     38 H12         15.8560   115.2550    14.4360 hc         1 X0I       0.050450
     39 H13         14.3970   115.9350    13.7130 hc         1 X0I       0.050450
     40 H14         15.3550   113.0010    11.2710 hc         1 X0I       0.047700
     41 H15         16.2060   112.2450    12.6140 hc         1 X0I       0.047700
     42 H16         15.5130   121.6690    13.7850 ha         1 X0I       0.115500
     43 H17         15.0130   121.7710    18.3310 ha         1 X0I       0.142500
     44 H18         14.7170   117.4160    11.9770 hn         1 X0I       0.335500
     45 H20         11.3050   119.9580    10.2890 ho         1 X0I       0.478000
     46 N20         12.8010   120.8030    11.1470 ns         1 X0I      -0.364400
     47 F01         10.0650   121.0180    19.8970 f          1 X0I      -0.157500
     48 O21         11.5580   120.9070    10.4130 oh         1 X0I      -0.437100
     49 H19         13.0340   121.5770    11.7690 hn         1 X0I       0.366500
@<TRIPOS>BOND
     1     1     2 1   
     2     1    16 1   
     3     1    27 1   
     4     2     4 1   
     5     2    17 1   
     6     2    28 1   
     7     3    17 1   
     8     3    18 1   
     9     3    29 1   
    10     3    30 1   
    11     4    18 1   
    12     4    31 1   
    13     4    32 1   
    14     5    11 ar  
    15     5    20 ar  
    16     5    33 1   
    17     6     7 ar  
    18     6    21 ar  
    19     6    22 1   
    20     7     8 ar  
    21     7    23 1   
    22     8     9 ar  
    23     8    47 1   
    24     9    10 ar  
    25     9    34 1   
    26    10    11 1   
    27    10    21 ar  
    28    11    12 ar  
    29    12    13 ar  
    30    12    35 1   
    31    13    14 ar  
    32    13    36 1   
    33    14    15 1   
    34    14    20 ar  
    35    15    19 1   
    36    15    24 1   
    37    15    37 1   
    38    16    24 1   
    39    16    25 2   
    40    17    38 1   
    41    17    39 1   
    42    18    40 1   
    43    18    41 1   
    44    19    26 2   
    45    19    46 1   
    46    20    42 1   
    47    21    43 1   
    48    24    44 1   
    49    45    48 1   
    50    46    48 1   
    51    46    49 1   
@<TRIPOS>SUBSTRUCTURE
     1 X0I         1 TEMP              0 ****  ****    0 ROOT
