@<TRIPOS>MOLECULE
X0J
  101   106     1     0     0
SMALL
No Charge or Current Charge


@<TRIPOS>ATOM
      1 C1         -12.3920    -3.1670    -0.7050 ca         1 X0J      -0.100000
      2 N1          -6.3730     0.5950    -2.1330 n3         1 X0J      -0.715600
      3 O1           1.1830     1.7230     3.3910 o          1 X0J      -0.566100
      4 S1           2.9050     4.1630     2.8420 sy         1 X0J       1.204300
      5 C2         -12.8710    -4.3580    -0.1330 ca         1 X0J      -0.110500
      6 N2          -3.8900     1.1880    -0.5790 nh         1 X0J      -0.801400
      7 O2           2.8940     4.0240     4.3020 o          1 X0J      -0.530500
      8 S2           8.6560    -0.4730    -1.7330 ss         1 X0J      -0.151000
      9 C3         -11.9950    -5.2090     0.5590 ca         1 X0J      -0.106000
     10 N3           1.4030     3.6830     2.2940 ns         1 X0J      -0.590300
     11 O3           3.1580     5.4510     2.1910 o          1 X0J      -0.530500
     12 C4         -10.6380    -4.8670     0.6780 ca         1 X0J      -0.110500
     13 N4           5.4130    -0.4430     3.1150 no         1 X0J       0.710200
     14 O4           6.4830    -1.0380     2.9290 o          1 X0J      -0.416000
     15 C5         -10.1590    -3.6760     0.1050 ca         1 X0J      -0.100000
     16 N5           6.2720    -0.0890     0.3430 nu         1 X0J      -0.932200
     17 O5           4.6090    -0.7500     4.0020 o          1 X0J      -0.416000
     18 C6         -11.0260    -2.8000    -0.5990 cp         1 X0J      -0.035000
     19 N6           2.0740    -1.4100    -0.7440 n3         1 X0J      -0.712600
     20 C7         -10.5150    -1.5300    -1.2090 cp         1 X0J      -0.035000
     21 C8         -11.3160    -0.3610    -1.2450 ca         1 X0J      -0.096000
     22 C9         -10.8340     0.8300    -1.8130 ca         1 X0J      -0.116000
     23 C10         -9.5420     0.8770    -2.3590 ca         1 X0J      -0.085000
     24 C11         -8.7240    -0.2670    -2.3410 ca         1 X0J      -0.092300
     25 C12         -9.2140    -1.4580    -1.7680 ca         1 X0J      -0.097000
     26 C13         -7.3200    -0.2140    -2.9360 c3         1 X0J       0.214100
     27 C14         -5.0480     0.7580    -2.8060 c6         1 X0J       0.153800
     28 C15         -4.0570     1.6530    -1.9930 c6         1 X0J       0.209300
     29 C16         -5.2000     0.9430     0.1060 c6         1 X0J       0.209300
     30 C17         -6.1700     0.0640    -0.7470 c6         1 X0J       0.153800
     31 C18         -2.7530     1.5410     0.1810 ca         1 X0J       0.359000
     32 C19         -2.3290     0.7090     1.2280 ca         1 X0J      -0.199000
     33 C20         -1.1980     1.0340     1.9930 ca         1 X0J      -0.018500
     34 C21         -0.4600     2.2080     1.7270 ca         1 X0J      -0.218600
     35 C22         -0.8900     3.0480     0.6720 ca         1 X0J      -0.018500
     36 C23         -2.0240     2.7120    -0.0890 ca         1 X0J      -0.199000
     37 C24          0.7710     2.5080     2.5530 c          1 X0J       0.656700
     38 C25          4.0130     2.9370     2.1520 ca         1 X0J      -0.388500
     39 C26          4.5010     3.0980     0.8460 ca         1 X0J       0.069000
     40 C27          5.2870     2.0890     0.2800 ca         1 X0J      -0.245000
     41 C28          5.5880     0.9250     0.9980 ca         1 X0J       0.472000
     42 C29          5.1320     0.7760     2.3190 ca         1 X0J      -0.316200
     43 C30          4.3330     1.7870     2.8940 ca         1 X0J       0.136000
     44 C31          5.9400    -0.6400    -0.9860 c3         1 X0J       0.246500
     45 C32          4.6300    -1.4720    -0.9340 c3         1 X0J      -0.098400
     46 C33          3.3400    -0.6330    -0.7470 c3         1 X0J       0.167800
     47 C34          0.9330    -0.5990    -0.2610 c3         1 X0J       0.148600
     48 C35          1.7680    -2.0750    -2.0340 c3         1 X0J       0.148600
     49 C36          7.1260    -1.4930    -1.4990 c3         1 X0J       0.017600
     50 C37          9.9080    -1.6020    -2.3590 ca         1 X0J      -0.095000
     51 C38         11.1770    -1.0750    -2.6640 ca         1 X0J      -0.107500
     52 C39         12.1960    -1.9090    -3.1560 ca         1 X0J      -0.096500
     53 C40         11.9520    -3.2780    -3.3470 ca         1 X0J      -0.111000
     54 C41         10.6880    -3.8120    -3.0450 ca         1 X0J      -0.096500
     55 C42          9.6670    -2.9790    -2.5520 ca         1 X0J      -0.107500
     56 H1         -13.0850    -2.5290    -1.2480 ha         1 X0J       0.113000
     57 H2         -13.9220    -4.6230    -0.2290 ha         1 X0J       0.113000
     58 H3         -12.3650    -6.1310     1.0020 ha         1 X0J       0.113000
     59 HN3          1.0580     4.2970     1.5810 hn         1 X0J       0.345500
     60 H4          -9.9580    -5.5230     1.2170 ha         1 X0J       0.113000
     61 H5          -9.1080    -3.4240     0.2210 ha         1 X0J       0.113000
     62 HN5          6.7090    -0.7450     0.9950 hn         1 X0J       0.538000
     63 H8         -12.3140    -0.3720    -0.8140 ha         1 X0J       0.116000
     64 H9         -11.4610     1.7190    -1.8250 ha         1 X0J       0.115000
     65 H10         -9.1710     1.8030    -2.7930 ha         1 X0J       0.124000
     66 H12         -8.5800    -2.3420    -1.7670 ha         1 X0J       0.112000
     67 H13         -7.3990     0.2080    -3.9470 h1         1 X0J       0.040700
     68 H13A        -6.9360    -1.2370    -3.0500 h1         1 X0J       0.040700
     69 H14         -4.5800    -0.2260    -2.9560 h1         1 X0J       0.044450
     70 H14A        -5.1800     1.2030    -3.8030 h1         1 X0J       0.044450
     71 H15         -4.4320     2.6880    -2.0020 h1         1 X0J       0.049950
     72 H15A        -3.0870     1.6500    -2.5120 h1         1 X0J       0.049950
     73 H16         -5.0490     0.4460     1.0750 h1         1 X0J       0.049950
     74 H16A        -5.6910     1.9050     0.3130 h1         1 X0J       0.049950
     75 H17         -7.1300    -0.0000    -0.2130 h1         1 X0J       0.044450
     76 H17A        -5.7630    -0.9570    -0.7920 h1         1 X0J       0.044450
     77 H19         -2.8700    -0.2080     1.4420 ha         1 X0J       0.117500
     78 H20         -0.8930     0.3600     2.7920 ha         1 X0J       0.120500
     79 H22         -0.3580     3.9610     0.4200 ha         1 X0J       0.120500
     80 H23         -2.3340     3.3790    -0.8860 ha         1 X0J       0.117500
     81 H26          4.2570     3.9820     0.2580 ha         1 X0J       0.132000
     82 H27          5.6490     2.2090    -0.7350 ha         1 X0J       0.124000
     83 H30          3.9430     1.6700     3.9080 ha         1 X0J       0.181000
     84 H31          5.8000     0.1740    -1.7110 h1         1 X0J       0.075700
     85 H32          4.5520    -2.0250    -1.8770 hc         1 X0J       0.062700
     86 H32A         4.6970    -2.2190    -0.1350 hc         1 X0J       0.062700
     87 H33          3.3020     0.1360    -1.5320 h1         1 X0J       0.033200
     88 H33A         3.4150    -0.1050     0.2100 h1         1 X0J       0.033200
     89 H34          0.7290     0.2400    -0.9400 h1         1 X0J       0.032033
     90 H34A         0.0230    -1.2090    -0.1870 h1         1 X0J       0.032033
     91 H34B         1.1430    -0.1900     0.7360 h1         1 X0J       0.032033
     92 H35          2.5400    -2.8070    -2.3000 h1         1 X0J       0.032033
     93 H35A         0.8140    -2.6150    -1.9730 h1         1 X0J       0.032033
     94 H35B         1.6910    -1.3390    -2.8460 h1         1 X0J       0.032033
     95 H36          6.8590    -1.9370    -2.4660 h1         1 X0J       0.077200
     96 H36A         7.3350    -2.3020    -0.7880 h1         1 X0J       0.077200
     97 H38         11.3740    -0.0150    -2.5180 ha         1 X0J       0.117500
     98 H39         13.1740    -1.4930    -3.3890 ha         1 X0J       0.115000
     99 H40         12.7400    -3.9250    -3.7280 ha         1 X0J       0.116000
    100 H41         10.4980    -4.8730    -3.1920 ha         1 X0J       0.115000
    101 H42          8.7030    -3.4220    -2.3270 ha         1 X0J       0.117500
@<TRIPOS>BOND
     1     1     5 ar  
     2     1    18 ar  
     3     1    56 1   
     4     2    26 1   
     5     2    27 1   
     6     2    30 1   
     7     3    37 2   
     8     4     7 2   
     9     4    10 1   
    10     4    11 2   
    11     4    38 1   
    12     5     9 ar  
    13     5    57 1   
    14     6    28 1   
    15     6    29 1   
    16     6    31 1   
    17     8    49 1   
    18     8    50 1   
    19     9    12 ar  
    20     9    58 1   
    21    10    37 1   
    22    10    59 1   
    23    12    15 ar  
    24    12    60 1   
    25    13    14 1   
    26    13    17 1   
    27    13    42 1   
    28    15    18 ar  
    29    15    61 1   
    30    16    41 1   
    31    16    44 1   
    32    16    62 1   
    33    18    20 1   
    34    19    46 1   
    35    19    47 1   
    36    19    48 1   
    37    20    21 ar  
    38    20    25 ar  
    39    21    22 ar  
    40    21    63 1   
    41    22    23 ar  
    42    22    64 1   
    43    23    24 ar  
    44    23    65 1   
    45    24    25 ar  
    46    24    26 1   
    47    25    66 1   
    48    26    67 1   
    49    26    68 1   
    50    27    28 1   
    51    27    69 1   
    52    27    70 1   
    53    28    71 1   
    54    28    72 1   
    55    29    30 1   
    56    29    73 1   
    57    29    74 1   
    58    30    75 1   
    59    30    76 1   
    60    31    32 ar  
    61    31    36 ar  
    62    32    33 ar  
    63    32    77 1   
    64    33    34 ar  
    65    33    78 1   
    66    34    35 ar  
    67    34    37 1   
    68    35    36 ar  
    69    35    79 1   
    70    36    80 1   
    71    38    39 ar  
    72    38    43 ar  
    73    39    40 ar  
    74    39    81 1   
    75    40    41 ar  
    76    40    82 1   
    77    41    42 ar  
    78    42    43 ar  
    79    43    83 1   
    80    44    45 1   
    81    44    49 1   
    82    44    84 1   
    83    45    46 1   
    84    45    85 1   
    85    45    86 1   
    86    46    87 1   
    87    46    88 1   
    88    47    89 1   
    89    47    90 1   
    90    47    91 1   
    91    48    92 1   
    92    48    93 1   
    93    48    94 1   
    94    49    95 1   
    95    49    96 1   
    96    50    51 ar  
    97    50    55 ar  
    98    51    52 ar  
    99    51    97 1   
   100    52    53 ar  
   101    52    98 1   
   102    53    54 ar  
   103    53    99 1   
   104    54    55 ar  
   105    54   100 1   
   106    55   101 1   
@<TRIPOS>SUBSTRUCTURE
     1 X0J         1 TEMP              0 ****  ****    0 ROOT
