@<TRIPOS>MOLECULE
X0J
  101   106     1     0     0
SMALL
abcg2


@<TRIPOS>ATOM
      1 C1         -13.2610    -2.4790    -0.2100 ca         1 X0J      -0.100000
      2 N1          -6.9250     0.7160    -1.5510 n3         1 X0J      -0.715600
      3 O1           1.1420     1.7360     2.8060 o          1 X0J      -0.566100
      4 S1           2.9330     3.9100     1.9780 sy         1 X0J       1.204300
      5 C2         -13.9190    -3.6600     0.1000 ca         1 X0J      -0.110500
      6 N2          -4.3480     1.2180    -0.4240 nh         1 X0J      -0.801400
      7 O2           2.9670     4.0030     3.4220 o          1 X0J      -0.530500
      8 S2           8.9150    -0.3950    -0.4430 ss         1 X0J      -0.151000
      9 C3         -13.1970    -4.7820     0.4860 ca         1 X0J      -0.106000
     10 N3           1.3840     3.5300     1.4650 ns         1 X0J      -0.590300
     11 O3           3.2800     5.0660     1.1720 o          1 X0J      -0.530500
     12 C4         -11.8120    -4.7120     0.5590 ca         1 X0J      -0.110500
     13 N4           5.3270    -0.4920     2.9570 no         1 X0J       0.710200
     14 O4           5.9140    -1.5110     2.6370 o          1 X0J      -0.416000
     15 C5         -11.1550    -3.5300     0.2490 ca         1 X0J      -0.100000
     16 N5           6.0130    -0.7820     0.1150 nu         1 X0J      -0.932200
     17 O5           5.0260    -0.2540     4.1040 o          1 X0J      -0.416000
     18 C6         -11.8690    -2.3960    -0.1410 cp         1 X0J      -0.035000
     19 N6           3.1450    -2.5690    -2.6150 n3         1 X0J      -0.712600
     20 C7         -11.1700    -1.1360    -0.4690 cp         1 X0J      -0.035000
     21 C8         -11.7070     0.0980    -0.1060 ca         1 X0J      -0.096000
     22 C9         -11.0360     1.2740    -0.4140 ca         1 X0J      -0.116000
     23 C10         -9.8240     1.2360    -1.0850 ca         1 X0J      -0.085000
     24 C11         -9.2710     0.0140    -1.4630 ca         1 X0J      -0.092300
     25 C12         -9.9480    -1.1550    -1.1460 ca         1 X0J      -0.097000
     26 C13         -7.9710    -0.0290    -2.2210 c3         1 X0J       0.214100
     27 C14         -5.7590     0.8800    -2.3920 c6         1 X0J       0.153800
     28 C15         -4.7140     1.7530    -1.7220 c6         1 X0J       0.209300
     29 C16         -5.5050     0.9560     0.4190 c6         1 X0J       0.209300
     30 C17         -6.5330     0.1050    -0.2980 c6         1 X0J       0.153800
     31 C18         -3.1460     1.5590     0.1430 ca         1 X0J       0.359000
     32 C19         -2.7430     1.0240     1.3860 ca         1 X0J      -0.199000
     33 C20         -1.5150     1.3200     1.9290 ca         1 X0J      -0.018500
     34 C21         -0.6220     2.1850     1.2910 ca         1 X0J      -0.218600
     35 C22         -1.0150     2.7280     0.0690 ca         1 X0J      -0.018500
     36 C23         -2.2390     2.4280    -0.4940 ca         1 X0J      -0.199000
     37 C24          0.6820     2.4370     1.9260 c          1 X0J       0.656700
     38 C25          3.8850     2.5350     1.4620 ca         1 X0J      -0.388500
     39 C26          4.2430     2.4130     0.1130 ca         1 X0J       0.069000
     40 C27          4.9490     1.3260    -0.3120 ca         1 X0J      -0.245000
     41 C28          5.3440     0.2820     0.5670 ca         1 X0J       0.472000
     42 C29          4.9810     0.4600     1.9380 ca         1 X0J      -0.316200
     43 C30          4.2570     1.5710     2.3620 ca         1 X0J       0.136000
     44 C31          6.4060    -1.0760    -1.2520 c3         1 X0J       0.246500
     45 C32          5.4710    -2.0970    -1.9030 c3         1 X0J      -0.098400
     46 C33          4.0530    -1.5710    -2.0840 c3         1 X0J       0.167800
     47 C34          1.7680    -2.1510    -2.4660 c3         1 X0J       0.148600
     48 C35          3.4300    -2.9000    -3.9960 c3         1 X0J       0.148600
     49 C36          7.8360    -1.6060    -1.2510 c3         1 X0J       0.017600
     50 C37         10.5340    -0.9380    -0.8770 ca         1 X0J      -0.095000
     51 C38         11.5800    -0.0500    -0.6160 ca         1 X0J      -0.107500
     52 C39         12.8880    -0.4080    -0.9010 ca         1 X0J      -0.096500
     53 C40         13.1720    -1.6510    -1.4560 ca         1 X0J      -0.111000
     54 C41         12.1340    -2.5310    -1.7170 ca         1 X0J      -0.096500
     55 C42         10.8190    -2.1860    -1.4260 ca         1 X0J      -0.107500
     56 H1         -13.8360    -1.6180    -0.5280 ha         1 X0J       0.113000
     57 H2         -14.9980    -3.7060     0.0340 ha         1 X0J       0.113000
     58 H3         -13.7090    -5.7040     0.7310 ha         1 X0J       0.113000
     59 HN3          0.9860     4.1750     0.7940 hn         1 X0J       0.345500
     60 H4         -11.2400    -5.5790     0.8660 ha         1 X0J       0.113000
     61 H5         -10.0760    -3.4870     0.3310 ha         1 X0J       0.113000
     62 HN5          6.1980    -1.5060     0.7940 hn         1 X0J       0.538000
     63 H8         -12.6430     0.1430     0.4370 ha         1 X0J       0.116000
     64 H9         -11.4610     2.2250    -0.1210 ha         1 X0J       0.115000
     65 H10         -9.3010     2.1560    -1.3130 ha         1 X0J       0.124000
     66 H12         -9.5200    -2.1050    -1.4480 ha         1 X0J       0.112000
     67 H13         -8.1210     0.4190    -3.2080 h1         1 X0J       0.040700
     68 H13A        -7.6810    -1.0780    -2.3990 h1         1 X0J       0.040700
     69 H14         -5.3030    -0.0900    -2.6530 h1         1 X0J       0.044450
     70 H14A        -6.0520     1.3600    -3.3280 h1         1 X0J       0.044450
     71 H15         -5.0900     2.7810    -1.6330 h1         1 X0J       0.049950
     72 H15A        -3.8430     1.7740    -2.3740 h1         1 X0J       0.049950
     73 H16         -5.2140     0.4310     1.3240 h1         1 X0J       0.049950
     74 H16A        -5.9660     1.9050     0.7240 h1         1 X0J       0.049950
     75 H17         -7.4030     0.0120     0.3540 h1         1 X0J       0.044450
     76 H17A        -6.1280    -0.9100    -0.4510 h1         1 X0J       0.044450
     77 H19         -3.3820     0.3430     1.9270 ha         1 X0J       0.117500
     78 H20         -1.2450     0.8700     2.8750 ha         1 X0J       0.120500
     79 H22         -0.3670     3.3930    -0.4890 ha         1 X0J       0.120500
     80 H23         -2.4830     2.8930    -1.4380 ha         1 X0J       0.117500
     81 H26          3.9660     3.1690    -0.6090 ha         1 X0J       0.132000
     82 H27          5.2030     1.2690    -1.3590 ha         1 X0J       0.124000
     83 H30          3.9910     1.6650     3.4040 ha         1 X0J       0.181000
     84 H31          6.4000    -0.1580    -1.8390 h1         1 X0J       0.075700
     85 H32          5.9070    -2.3690    -2.8670 hc         1 X0J       0.062700
     86 H32A         5.4460    -3.0060    -1.2960 hc         1 X0J       0.062700
     87 H33          4.0750    -0.6650    -2.7170 h1         1 X0J       0.033200
     88 H33A         3.6650    -1.2600    -1.1110 h1         1 X0J       0.033200
     89 H34          1.5220    -1.2380    -3.0310 h1         1 X0J       0.032033
     90 H34A         1.1000    -2.9400    -2.8140 h1         1 X0J       0.032033
     91 H34B         1.5430    -1.9610    -1.4150 h1         1 X0J       0.032033
     92 H35          4.4310    -3.3180    -4.1040 h1         1 X0J       0.032033
     93 H35A         2.7250    -3.6550    -4.3470 h1         1 X0J       0.032033
     94 H35B         3.3550    -2.0310    -4.6690 h1         1 X0J       0.032033
     95 H36          8.1570    -1.7500    -2.2840 h1         1 X0J       0.077200
     96 H36A         7.8900    -2.5680    -0.7360 h1         1 X0J       0.077200
     97 H38         11.3710     0.9250    -0.1930 ha         1 X0J       0.117500
     98 H39         13.6870     0.2910    -0.6930 ha         1 X0J       0.115000
     99 H40         14.1940    -1.9280    -1.6810 ha         1 X0J       0.116000
    100 H41         12.3410    -3.5020    -2.1480 ha         1 X0J       0.115000
    101 H42         10.0340    -2.9010    -1.6300 ha         1 X0J       0.117500
@<TRIPOS>BOND
     1     1     5 ar  
     2     1    18 ar  
     3     1    56 1   
     4     2    26 1   
     5     2    27 1   
     6     2    30 1   
     7     3    37 2   
     8     4     7 2   
     9     4    10 1   
    10     4    11 2   
    11     4    38 1   
    12     5     9 ar  
    13     5    57 1   
    14     6    28 1   
    15     6    29 1   
    16     6    31 1   
    17     8    49 1   
    18     8    50 1   
    19     9    12 ar  
    20     9    58 1   
    21    10    37 1   
    22    10    59 1   
    23    12    15 ar  
    24    12    60 1   
    25    13    14 1   
    26    13    17 1   
    27    13    42 1   
    28    15    18 ar  
    29    15    61 1   
    30    16    41 1   
    31    16    44 1   
    32    16    62 1   
    33    18    20 1   
    34    19    46 1   
    35    19    47 1   
    36    19    48 1   
    37    20    21 ar  
    38    20    25 ar  
    39    21    22 ar  
    40    21    63 1   
    41    22    23 ar  
    42    22    64 1   
    43    23    24 ar  
    44    23    65 1   
    45    24    25 ar  
    46    24    26 1   
    47    25    66 1   
    48    26    67 1   
    49    26    68 1   
    50    27    28 1   
    51    27    69 1   
    52    27    70 1   
    53    28    71 1   
    54    28    72 1   
    55    29    30 1   
    56    29    73 1   
    57    29    74 1   
    58    30    75 1   
    59    30    76 1   
    60    31    32 ar  
    61    31    36 ar  
    62    32    33 ar  
    63    32    77 1   
    64    33    34 ar  
    65    33    78 1   
    66    34    35 ar  
    67    34    37 1   
    68    35    36 ar  
    69    35    79 1   
    70    36    80 1   
    71    38    39 ar  
    72    38    43 ar  
    73    39    40 ar  
    74    39    81 1   
    75    40    41 ar  
    76    40    82 1   
    77    41    42 ar  
    78    42    43 ar  
    79    43    83 1   
    80    44    45 1   
    81    44    49 1   
    82    44    84 1   
    83    45    46 1   
    84    45    85 1   
    85    45    86 1   
    86    46    87 1   
    87    46    88 1   
    88    47    89 1   
    89    47    90 1   
    90    47    91 1   
    91    48    92 1   
    92    48    93 1   
    93    48    94 1   
    94    49    95 1   
    95    49    96 1   
    96    50    51 ar  
    97    50    55 ar  
    98    51    52 ar  
    99    51    97 1   
   100    52    53 ar  
   101    52    98 1   
   102    53    54 ar  
   103    53    99 1   
   104    54    55 ar  
   105    54   100 1   
   106    55   101 1   
@<TRIPOS>SUBSTRUCTURE
     1 X0J         1 TEMP              0 ****  ****    0 ROOT
