@<TRIPOS>MOLECULE
X0K
   57    61     1     0     0
SMALL
abcg2


@<TRIPOS>ATOM
      1 C1          20.3100    17.8730    24.9050 ca         1 X0K      -0.091000
      2 C2          18.9860    17.5390    25.1490 ca         1 X0K      -0.107000
      3 C3          18.4440    17.6920    26.4160 ca         1 X0K      -0.091000
      4 C4          18.6950    18.3520    28.7860 ca         1 X0K      -0.093000
      5 C5          19.4620    18.8300    29.7930 ca         1 X0K      -0.095000
      6 C6          21.6490    19.6910    30.6110 ca         1 X0K       0.039000
      7 C7          22.9780    20.0310    30.3380 ca         1 X0K      -0.084000
      8 P           15.3970    23.4200    36.9760 p3         1 X0K       0.225300
      9 OP1         13.7980    23.1460    36.7140 oh         1 X0K      -0.537100
     10 OP2         15.4190    25.0560    36.9580 oh         1 X0K      -0.537100
     11 O5          15.3830    23.3080    38.6150 os         1 X0K      -0.329100
     12 C18         16.5500    21.9840    40.2430 c3         1 X0K       0.118300
     13 C19         17.8980    22.4650    39.7110 c3         1 X0K       0.132600
     14 C12         18.4990    19.7480    36.0150 ca         1 X0K      -0.092500
     15 C11         18.9850    19.5940    34.7270 ca         1 X0K      -0.093500
     16 C14         20.9540    20.8430    35.3360 ca         1 X0K      -0.093500
     17 C13         20.4560    20.9910    36.6170 ca         1 X0K      -0.092500
     18 C15         20.7230    19.9880    33.0510 cg         1 X0K      -0.108000
     19 C16         21.1440    19.8510    31.9270 ch         1 X0K      -0.099000
     20 C8          23.5080    19.8790    29.0740 ca         1 X0K      -0.100000
     21 C8A         22.7290    19.3790    28.0280 ca         1 X0K      -0.023000
     22 C3A         19.2210    18.1840    27.4660 ca         1 X0K      -0.035000
     23 C5A         20.8310    19.1880    29.5780 ca         1 X0K      -0.008000
     24 C10         22.4880    18.7240    25.7060 ca         1 X0K      -0.089000
     25 C9          23.2560    19.2080    26.7090 ca         1 X0K      -0.099000
     26 C17         15.4600    22.0110    39.1810 c3         1 X0K       0.201600
     27 O3          16.5720    20.6560    40.7240 oh         1 X0K      -0.725000
     28 O1          18.2370    21.9990    38.4290 os         1 X0K      -0.457000
     29 C12A        19.2260    20.4440    36.9760 ca         1 X0K      -0.080300
     30 C14A        20.2200    20.1420    34.3710 ca         1 X0K       0.035000
     31 C10A        21.1190    18.3700    25.9280 ca         1 X0K      -0.035000
     32 C10C        21.3780    19.0340    28.2820 ca         1 X0K      -0.019000
     33 C10B        20.5720    18.5290    27.2250 ca         1 X0K      -0.014000
     34 H1          20.7260    17.7510    23.9130 ha         1 X0K       0.114000
     35 H2          18.3720    17.1560    24.3450 ha         1 X0K       0.115000
     36 H3          17.4090    17.4290    26.5990 ha         1 X0K       0.115000
     37 H4          17.6610    18.0870    28.9690 ha         1 X0K       0.114000
     38 H5          19.0420    18.9470    30.7830 ha         1 X0K       0.122000
     39 H7          23.5970    20.4190    31.1370 ha         1 X0K       0.121000
     40 H6          13.6630    22.6330    35.9090 ho         1 X0K       0.463000
     41 H15         16.0740    25.3840    36.3310 ho         1 X0K       0.463000
     42 H18         16.2730    22.6800    41.0500 h1         1 X0K       0.050700
     43 H3'         18.6800    22.2130    40.4440 h1         1 X0K       0.051700
     44 H19         17.8750    23.5540    39.6390 h1         1 X0K       0.051700
     45 H20         17.8540    19.9510    38.5370 h1         1 X0K       0.037700
     46 H4'         19.4420    20.4630    39.1120 h1         1 X0K       0.037700
     47 H12         17.5390    19.3190    36.2750 ha         1 X0K       0.116500
     48 H11         18.4080    19.0490    33.9900 ha         1 X0K       0.120000
     49 H14         21.9140    21.2690    35.0730 ha         1 X0K       0.120000
     50 H13         21.0380    21.5340    37.3530 ha         1 X0K       0.116500
     51 H8          24.5400    20.1480    28.8870 ha         1 X0K       0.117000
     52 H10         22.9000    18.5990    24.7120 ha         1 X0K       0.115000
     53 H9          24.2900    19.4750    26.5290 ha         1 X0K       0.115000
     54 H1'         14.4980    21.7570    39.6340 h1         1 X0K       0.046200
     55 H17         15.6690    21.2440    38.4250 h1         1 X0K       0.046200
     56 H16         17.1540    20.6170    41.4890 ho         1 X0K       0.505000
     57 C20         18.6710    20.6560    38.3540 c3         1 X0K       0.202900
@<TRIPOS>BOND
     1     1     2 ar  
     2     1    31 ar  
     3     1    34 1   
     4     2     3 ar  
     5     2    35 1   
     6     3    22 ar  
     7     3    36 1   
     8     4     5 ar  
     9     4    22 ar  
    10     4    37 1   
    11     5    23 ar  
    12     5    38 1   
    13     6     7 ar  
    14     6    19 1   
    15     6    23 ar  
    16     7    20 ar  
    17     7    39 1   
    18     8     9 1   
    19     8    10 1   
    20     8    11 1   
    21     9    40 1   
    22    10    41 1   
    23    11    26 1   
    24    12    13 1   
    25    12    26 1   
    26    12    27 1   
    27    12    42 1   
    28    13    28 1   
    29    13    43 1   
    30    13    44 1   
    31    14    15 ar  
    32    14    29 ar  
    33    14    47 1   
    34    15    30 ar  
    35    15    48 1   
    36    16    17 ar  
    37    16    30 ar  
    38    16    49 1   
    39    17    29 ar  
    40    17    50 1   
    41    18    19 3   
    42    18    30 1   
    43    20    21 ar  
    44    20    51 1   
    45    21    25 ar  
    46    21    32 ar  
    47    22    33 ar  
    48    23    32 ar  
    49    24    25 ar  
    50    24    31 ar  
    51    24    52 1   
    52    25    53 1   
    53    26    54 1   
    54    26    55 1   
    55    27    56 1   
    56    28    57 1   
    57    29    57 1   
    58    31    33 ar  
    59    32    33 ar  
    60    45    57 1   
    61    46    57 1   
@<TRIPOS>SUBSTRUCTURE
     1 X0K         1 TEMP              0 ****  ****    0 ROOT
