@<TRIPOS>MOLECULE
X0K
   57    61     1     0     0
SMALL
No Charge or Current Charge


@<TRIPOS>ATOM
      1 C1          20.5020    17.7830    24.7730 ca         1 X0K      -0.091000
      2 C2          19.1460    17.4940    24.9980 ca         1 X0K      -0.107000
      3 C3          18.5880    17.6780    26.2740 ca         1 X0K      -0.091000
      4 C4          18.8330    18.3370    28.6090 ca         1 X0K      -0.093000
      5 C5          19.6280    18.8110    29.6650 ca         1 X0K      -0.095000
      6 C6          21.8260    19.5890    30.5140 ca         1 X0K       0.039000
      7 C7          23.1820    19.8700    30.2610 ca         1 X0K      -0.084000
      8 P           13.8800    23.6160    37.7500 p3         1 X0K       0.225300
      9 OP1         12.7740    24.5130    38.6130 oh         1 X0K      -0.537100
     10 OP2         14.5910    24.7330    36.7400 oh         1 X0K      -0.537100
     11 O5          15.0670    23.2720    38.8620 os         1 X0K      -0.329100
     12 C18         16.5710    21.8970    40.1850 c3         1 X0K       0.118300
     13 C19         17.8920    22.5820    39.6980 c3         1 X0K       0.132600
     14 C12         18.4950    20.1700    35.8340 ca         1 X0K      -0.092500
     15 C11         19.0090    19.9750    34.5390 ca         1 X0K      -0.093500
     16 C14         21.2300    20.5710    35.3330 ca         1 X0K      -0.093500
     17 C13         20.7160    20.7660    36.6270 ca         1 X0K      -0.092500
     18 C15         20.9020    19.9760    32.9660 cg         1 X0K      -0.108000
     19 C16         21.3340    19.8020    31.8380 ch         1 X0K      -0.099000
     20 C8          23.7250    19.6820    28.9810 ca         1 X0K      -0.100000
     21 C8A         22.9170    19.2080    27.9360 ca         1 X0K      -0.023000
     22 C3A         19.3870    18.1520    27.3320 ca         1 X0K      -0.035000
     23 C5A         20.9980    19.1090    29.4630 ca         1 X0K      -0.008000
     24 C10         22.6650    18.5470    25.6030 ca         1 X0K      -0.089000
     25 C9          23.4660    19.0200    26.6540 ca         1 X0K      -0.099000
     26 C17         15.4420    21.9080    39.1180 c3         1 X0K       0.201600
     27 O3          16.8110    20.5500    40.6570 oh         1 X0K      -0.725000
     28 O1          18.3010    22.1270    38.3830 os         1 X0K      -0.457000
     29 C12A        19.3450    20.5650    36.8850 ca         1 X0K      -0.080300
     30 C14A        20.3780    20.1750    34.2860 ca         1 X0K       0.035000
     31 C10A        21.3070    18.2580    25.8260 ca         1 X0K      -0.035000
     32 C10C        21.5540    18.9200    28.1720 ca         1 X0K      -0.019000
     33 C10B        20.7500    18.4440    27.1110 ca         1 X0K      -0.014000
     34 H1          20.9260    17.6380    23.7820 ha         1 X0K       0.114000
     35 H2          18.5260    17.1270    24.1820 ha         1 X0K       0.115000
     36 H3          17.5370    17.4520    26.4390 ha         1 X0K       0.115000
     37 H4          17.7830    18.1150    28.7870 ha         1 X0K       0.114000
     38 H5          19.1620    18.9400    30.6390 ha         1 X0K       0.122000
     39 H7          23.8200    20.2380    31.0610 ha         1 X0K       0.121000
     40 H6          11.9000    24.0750    38.5240 ho         1 X0K       0.463000
     41 H15         14.5290    24.3880    35.8230 ho         1 X0K       0.463000
     42 H18         16.2030    22.4950    41.0300 h1         1 X0K       0.050700
     43 H3'         18.6900    22.4170    40.4350 h1         1 X0K       0.051700
     44 H19         17.7140    23.6650    39.6630 h1         1 X0K       0.051700
     45 H20         17.9810    20.0500    38.4550 h1         1 X0K       0.037700
     46 H4'         19.5760    20.5880    39.0270 h1         1 X0K       0.037700
     47 H12         17.4340    20.0160    36.0200 ha         1 X0K       0.116500
     48 H11         18.3420    19.6700    33.7360 ha         1 X0K       0.120000
     49 H14         22.2900    20.7290    35.1450 ha         1 X0K       0.120000
     50 H13         21.3820    21.0750    37.4290 ha         1 X0K       0.116500
     51 H8          24.7750    19.9050    28.8060 ha         1 X0K       0.117000
     52 H10         23.1010    18.4060    24.6160 ha         1 X0K       0.115000
     53 H9          24.5150    19.2410    26.4700 ha         1 X0K       0.115000
     54 H1'         14.5790    21.3460    39.4990 h1         1 X0K       0.046200
     55 H17         15.7870    21.4210    38.1980 h1         1 X0K       0.046200
     56 H16         17.2860    20.6160    41.5190 ho         1 X0K       0.505000
     57 C20         18.7870    20.7740    38.2860 c3         1 X0K       0.202900
@<TRIPOS>BOND
     1     1     2 ar  
     2     1    31 ar  
     3     1    34 1   
     4     2     3 ar  
     5     2    35 1   
     6     3    22 ar  
     7     3    36 1   
     8     4     5 ar  
     9     4    22 ar  
    10     4    37 1   
    11     5    23 ar  
    12     5    38 1   
    13     6     7 ar  
    14     6    19 1   
    15     6    23 ar  
    16     7    20 ar  
    17     7    39 1   
    18     8     9 1   
    19     8    10 1   
    20     8    11 1   
    21     9    40 1   
    22    10    41 1   
    23    11    26 1   
    24    12    13 1   
    25    12    26 1   
    26    12    27 1   
    27    12    42 1   
    28    13    28 1   
    29    13    43 1   
    30    13    44 1   
    31    14    15 ar  
    32    14    29 ar  
    33    14    47 1   
    34    15    30 ar  
    35    15    48 1   
    36    16    17 ar  
    37    16    30 ar  
    38    16    49 1   
    39    17    29 ar  
    40    17    50 1   
    41    18    19 3   
    42    18    30 1   
    43    20    21 ar  
    44    20    51 1   
    45    21    25 ar  
    46    21    32 ar  
    47    22    33 ar  
    48    23    32 ar  
    49    24    25 ar  
    50    24    31 ar  
    51    24    52 1   
    52    25    53 1   
    53    26    54 1   
    54    26    55 1   
    55    27    56 1   
    56    28    57 1   
    57    29    57 1   
    58    31    33 ar  
    59    32    33 ar  
    60    45    57 1   
    61    46    57 1   
@<TRIPOS>SUBSTRUCTURE
     1 X0K         1 TEMP              0 ****  ****    0 ROOT
