@<TRIPOS>MOLECULE
X0L
   34    36     1     0     0
SMALL
abcg2


@<TRIPOS>ATOM
      1 C10        -17.1950   -24.2760    -3.8410 c          1 X0L       0.483000
      2 C15        -17.2580   -22.9570    -1.3500 ca         1 X0L       0.030600
      3 C17        -18.5010   -22.0400     0.4920 ca         1 X0L      -0.099000
      4 C20        -18.4430   -23.3330    -1.9880 ca         1 X0L       0.035600
      5 C02        -21.6180   -27.7530    -2.0670 ca         1 X0L      -0.069300
      6 C03        -22.3240   -26.7610    -2.7430 ca         1 X0L      -0.108500
      7 C04        -21.6700   -25.6760    -3.3090 ca         1 X0L      -0.095000
      8 C05        -20.2880   -25.5520    -3.2230 ca         1 X0L      -0.112300
      9 C06        -19.5760   -26.5390    -2.5510 ca         1 X0L      -0.095000
     10 C07        -20.2340   -27.6190    -1.9790 ca         1 X0L      -0.108500
     11 N09        -18.3740   -23.9750    -3.2290 n          1 X0L      -0.292000
     12 O11        -17.1140   -24.8570    -4.9020 o          1 X0L      -0.486000
     13 C12        -15.9070   -23.8540    -3.1470 c          1 X0L       0.491000
     14 O13        -14.8380   -24.0890    -3.6670 o          1 X0L      -0.488000
     15 N14        -16.0480   -23.2300    -1.9620 ns         1 X0L      -0.387100
     16 C16        -17.2910   -22.3140    -0.1180 ca         1 X0L      -0.128000
     17 C18        -19.6830   -22.4120    -0.1340 ca         1 X0L      -0.106000
     18 C19        -19.6560   -23.0530    -1.3610 ca         1 X0L      -0.112000
     19 H1         -18.5190   -21.5400     1.4500 ha         1 X0L       0.121000
     20 H2         -22.3290   -29.7790    -2.1550 hc         1 X0L       0.043700
     21 H3         -21.8240   -29.2690    -0.5530 hc         1 X0L       0.043700
     22 H4         -23.3560   -28.7030    -1.2200 hc         1 X0L       0.043700
     23 H5         -23.4030   -26.8280    -2.8180 ha         1 X0L       0.113000
     24 H6         -22.2470   -24.9110    -3.8160 ha         1 X0L       0.113500
     25 H7         -18.4990   -26.4730    -2.4500 ha         1 X0L       0.113500
     26 H8         -19.6580   -28.3690    -1.4500 ha         1 X0L       0.113000
     27 H9         -19.3670   -24.6210    -4.9180 h1         1 X0L       0.075700
     28 H10        -20.2840   -23.5200    -3.9250 h1         1 X0L       0.075700
     29 H11        -15.1990   -22.9470    -1.4880 hn         1 X0L       0.332500
     30 H12        -16.3580   -22.0320     0.3550 ha         1 X0L       0.120000
     31 H13        -20.6370   -22.2060     0.3320 ha         1 X0L       0.121000
     32 H14        -20.5930   -23.3360    -1.8160 ha         1 X0L       0.129000
     33 C08        -19.6110   -24.3780    -3.8850 c3         1 X0L       0.134300
     34 C01        -22.3200   -28.9340    -1.4640 c3         1 X0L      -0.047800
@<TRIPOS>BOND
     1     1    11 1   
     2     1    12 2   
     3     1    13 1   
     4     2     4 ar  
     5     2    15 1   
     6     2    16 ar  
     7     3    16 ar  
     8     3    17 ar  
     9     3    19 1   
    10     4    11 1   
    11     4    18 ar  
    12     5     6 ar  
    13     5    10 ar  
    14     5    34 1   
    15     6     7 ar  
    16     6    23 1   
    17     7     8 ar  
    18     7    24 1   
    19     8     9 ar  
    20     8    33 1   
    21     9    10 ar  
    22     9    25 1   
    23    10    26 1   
    24    11    33 1   
    25    13    14 2   
    26    13    15 1   
    27    15    29 1   
    28    16    30 1   
    29    17    18 ar  
    30    17    31 1   
    31    18    32 1   
    32    20    34 1   
    33    21    34 1   
    34    22    34 1   
    35    27    33 1   
    36    28    33 1   
@<TRIPOS>SUBSTRUCTURE
     1 X0L         1 TEMP              0 ****  ****    0 ROOT
