@<TRIPOS>MOLECULE
X0L
   34    36     1     0     0
SMALL
No Charge or Current Charge


@<TRIPOS>ATOM
      1 C10        -17.0790   -24.3580    -3.7810 c          1 X0L       0.483000
      2 C15        -17.2630   -22.8590    -1.3110 ca         1 X0L       0.030600
      3 C17        -18.5700   -21.8360     0.4680 ca         1 X0L      -0.099000
      4 C20        -18.4440   -23.2770    -1.9730 ca         1 X0L       0.035600
      5 C02        -21.6320   -27.8270    -2.0980 ca         1 X0L      -0.069300
      6 C03        -22.3510   -26.6830    -2.4890 ca         1 X0L      -0.108500
      7 C04        -21.6870   -25.5950    -3.0810 ca         1 X0L      -0.095000
      8 C05        -20.2940   -25.6360    -3.2880 ca         1 X0L      -0.112300
      9 C06        -19.5780   -26.7880    -2.9050 ca         1 X0L      -0.095000
     10 C07        -20.2430   -27.8750    -2.3130 ca         1 X0L      -0.108500
     11 N09        -18.3430   -24.0240    -3.2150 n          1 X0L      -0.292000
     12 O11        -16.9850   -25.0050    -4.8240 o          1 X0L      -0.486000
     13 C12        -15.7650   -23.8680    -3.0180 c          1 X0L       0.491000
     14 O13        -14.6240   -24.0870    -3.4110 o          1 X0L      -0.488000
     15 N14        -16.0070   -23.1660    -1.8610 ns         1 X0L      -0.387100
     16 C16        -17.3270   -22.1430    -0.1040 ca         1 X0L      -0.128000
     17 C18        -19.7500   -22.2500    -0.1680 ca         1 X0L      -0.106000
     18 C19        -19.6900   -22.9660    -1.3760 ca         1 X0L      -0.112000
     19 H1         -18.6200   -21.2820     1.4030 ha         1 X0L       0.121000
     20 H2         -22.6900   -29.7170    -2.2230 hc         1 X0L       0.043700
     21 H3         -21.6970   -29.5460    -0.7650 hc         1 X0L       0.043700
     22 H4         -23.2320   -28.6780    -0.8940 hc         1 X0L       0.043700
     23 H5         -23.4270   -26.6360    -2.3350 ha         1 X0L       0.113000
     24 H6         -22.2600   -24.7190    -3.3780 ha         1 X0L       0.113500
     25 H7         -18.5040   -26.8440    -3.0650 ha         1 X0L       0.113500
     26 H8         -19.6760   -28.7570    -2.0220 ha         1 X0L       0.113000
     27 H9         -19.3490   -24.7120    -4.9730 h1         1 X0L       0.075700
     28 H10        -20.2590   -23.5920    -3.9920 h1         1 X0L       0.075700
     29 H11        -15.1890   -22.8440    -1.3580 hn         1 X0L       0.332500
     30 H12        -16.4140   -21.8250     0.3940 ha         1 X0L       0.120000
     31 H13        -20.7150   -22.0160     0.2770 ha         1 X0L       0.121000
     32 H14        -20.6270   -23.2700    -1.8310 ha         1 X0L       0.129000
     33 C08        -19.5780   -24.4510    -3.9320 c3         1 X0L       0.134300
     34 C01        -22.3520   -29.0060    -1.4600 c3         1 X0L      -0.047800
@<TRIPOS>BOND
     1     1    11 1   
     2     1    12 2   
     3     1    13 1   
     4     2     4 ar  
     5     2    15 1   
     6     2    16 ar  
     7     3    16 ar  
     8     3    17 ar  
     9     3    19 1   
    10     4    11 1   
    11     4    18 ar  
    12     5     6 ar  
    13     5    10 ar  
    14     5    34 1   
    15     6     7 ar  
    16     6    23 1   
    17     7     8 ar  
    18     7    24 1   
    19     8     9 ar  
    20     8    33 1   
    21     9    10 ar  
    22     9    25 1   
    23    10    26 1   
    24    11    33 1   
    25    13    14 2   
    26    13    15 1   
    27    15    29 1   
    28    16    30 1   
    29    17    18 ar  
    30    17    31 1   
    31    18    32 1   
    32    20    34 1   
    33    21    34 1   
    34    22    34 1   
    35    27    33 1   
    36    28    33 1   
@<TRIPOS>SUBSTRUCTURE
     1 X0L         1 TEMP              0 ****  ****    0 ROOT
