@<TRIPOS>MOLECULE
X0M
   28    29     1     0     0
SMALL
abcg2


@<TRIPOS>ATOM
      1 C4          20.9490    37.6480     6.7750 ca         1 X0M      -0.066000
      2 C5          21.1980    37.8500     5.4250 ca         1 X0M      -0.158000
      3 C6          21.7990    39.0380     5.0260 ca         1 X0M      -0.067000
      4 C11         21.3750    39.2450    13.8720 c3         1 X0M      -0.180100
      5 C7          21.7370    40.6890     9.5880 c6         1 X0M       0.193800
      6 C8          21.7940    39.2530    10.1020 c6         1 X0M       0.102700
      7 C9          20.9670    38.3560     9.1890 c6         1 X0M      -0.032100
      8 N1          22.2820    40.7320     8.2530 nu         1 X0M      -0.948200
      9 N2          21.3100    39.1560    11.4590 ns         1 X0M      -0.510900
     10 C3          21.2760    38.5990     7.7340 ca         1 X0M      -0.150300
     11 C1          22.1420    39.9980     5.9620 ca         1 X0M      -0.182000
     12 C2          21.8900    39.7950     7.3250 ca         1 X0M       0.316000
     13 O1          23.2660    39.6610    12.4690 o          1 X0M      -0.601100
     14 H2          20.4830    36.7240     7.1010 ha         1 X0M       0.106000
     15 H3          20.9320    37.0940     4.6990 ha         1 X0M       0.114000
     16 H4          22.0040    39.2210     3.9790 ha         1 X0M       0.110000
     17 H14         21.8100    38.4120    14.4240 hc         1 X0M       0.060033
     18 H12         21.5370    40.1450    14.4640 hc         1 X0M       0.060033
     19 H13         20.3030    39.0740    13.7870 hc         1 X0M       0.060033
     20 H6          22.3350    41.3390    10.2270 h1         1 X0M       0.043200
     21 H7          20.6970    41.0430     9.6350 h1         1 X0M       0.043200
     22 H8          22.8350    38.9240    10.0830 h1         1 X0M       0.096700
     23 H9          19.9030    38.5450     9.3720 hc         1 X0M       0.048700
     24 H10         21.1400    37.3070     9.4410 hc         1 X0M       0.048700
     25 H5          22.4800    41.6520     7.8930 hn         1 X0M       0.473000
     26 H11         20.3260    38.9820    11.5910 hn         1 X0M       0.310500
     27 H1          22.6160    40.9200     5.6440 ha         1 X0M       0.110000
     28 C10         22.0770    39.3820    12.5430 c          1 X0M       0.601100
@<TRIPOS>BOND
     1     1     2 ar  
     2     1    10 ar  
     3     1    14 1   
     4     2     3 ar  
     5     2    15 1   
     6     3    11 ar  
     7     3    16 1   
     8     4    17 1   
     9     4    18 1   
    10     4    19 1   
    11     4    28 1   
    12     5     6 1   
    13     5     8 1   
    14     5    20 1   
    15     5    21 1   
    16     6     7 1   
    17     6     9 1   
    18     6    22 1   
    19     7    10 1   
    20     7    23 1   
    21     7    24 1   
    22     8    12 1   
    23     8    25 1   
    24     9    26 1   
    25     9    28 1   
    26    10    12 ar  
    27    11    12 ar  
    28    11    27 1   
    29    13    28 2   
@<TRIPOS>SUBSTRUCTURE
     1 X0M         1 TEMP              0 ****  ****    0 ROOT
