@<TRIPOS>MOLECULE
X0M
   28    29     1     0     0
SMALL
No Charge or Current Charge


@<TRIPOS>ATOM
      1 C4          20.9880    37.5770     6.7540 ca         1 X0M      -0.066000
      2 C5          21.2210    37.8070     5.3870 ca         1 X0M      -0.158000
      3 C6          21.7700    39.0270     4.9590 ca         1 X0M      -0.067000
      4 C11         21.3560    39.2810    13.9570 c3         1 X0M      -0.180100
      5 C7          21.7190    40.7210     9.6010 c6         1 X0M       0.193800
      6 C8          21.8410    39.2610    10.1260 c6         1 X0M       0.102700
      7 C9          21.0350    38.3160     9.1950 c6         1 X0M      -0.032100
      8 N1          22.1780    40.7820     8.1980 nu         1 X0M      -0.948200
      9 N2          21.3670    39.1410    11.5170 ns         1 X0M      -0.510900
     10 C3          21.3090    38.5670     7.7020 ca         1 X0M      -0.150300
     11 C1          22.0870    40.0200     5.9010 ca         1 X0M      -0.182000
     12 C2          21.8560    39.7950     7.2670 ca         1 X0M       0.316000
     13 O1          23.2090    39.9660    12.5720 o          1 X0M      -0.601100
     14 H2          20.5590    36.6300     7.0750 ha         1 X0M       0.106000
     15 H3          20.9730    37.0380     4.6580 ha         1 X0M       0.114000
     16 H4          21.9490    39.2030     3.9000 ha         1 X0M       0.110000
     17 H14         21.0460    38.2310    14.0220 hc         1 X0M       0.060033
     18 H12         21.9570    39.5800    14.8230 hc         1 X0M       0.060033
     19 H13         20.3950    39.8060    13.9290 hc         1 X0M       0.060033
     20 H6          22.3070    41.4040    10.2320 h1         1 X0M       0.043200
     21 H7          20.6660    41.0340     9.6660 h1         1 X0M       0.043200
     22 H8          22.9020    38.9700    10.0890 h1         1 X0M       0.096700
     23 H9          19.9600    38.4490     9.3770 hc         1 X0M       0.048700
     24 H10         21.2640    37.2720     9.4490 hc         1 X0M       0.048700
     25 H5          22.5150    41.6720     7.8240 hn         1 X0M       0.473000
     26 H11         20.4400    38.7660    11.6780 hn         1 X0M       0.310500
     27 H1          22.5120    40.9630     5.5680 ha         1 X0M       0.110000
     28 C10         22.0800    39.5020    12.6360 c          1 X0M       0.601100
@<TRIPOS>BOND
     1     1     2 ar  
     2     1    10 ar  
     3     1    14 1   
     4     2     3 ar  
     5     2    15 1   
     6     3    11 ar  
     7     3    16 1   
     8     4    17 1   
     9     4    18 1   
    10     4    19 1   
    11     4    28 1   
    12     5     6 1   
    13     5     8 1   
    14     5    20 1   
    15     5    21 1   
    16     6     7 1   
    17     6     9 1   
    18     6    22 1   
    19     7    10 1   
    20     7    23 1   
    21     7    24 1   
    22     8    12 1   
    23     8    25 1   
    24     9    26 1   
    25     9    28 1   
    26    10    12 ar  
    27    11    12 ar  
    28    11    27 1   
    29    13    28 2   
@<TRIPOS>SUBSTRUCTURE
     1 X0M         1 TEMP              0 ****  ****    0 ROOT
