@<TRIPOS>MOLECULE
X0P
   66    69     1     0     0
SMALL
No Charge or Current Charge


@<TRIPOS>ATOM
      1 C1           1.0740    -4.4250     0.0680 ca         1 X0P      -0.043000
      2 C2          -0.2430    -4.9160    -0.0090 ca         1 X0P      -0.027000
      3 C3           1.3190    -3.1680     0.6470 ca         1 X0P      -0.093000
      4 C4          -1.3030    -4.1420     0.4890 ca         1 X0P      -0.124000
      5 C5          -5.2990     1.0620    -0.4160 ca         1 X0P      -0.158000
      6 C6           2.9650     2.2610    -0.2710 ca         1 X0P      -0.060000
      7 C7           4.5890     1.0920     1.1120 ca         1 X0P      -0.060000
      8 C8          -5.7160     2.1080    -1.2510 ca         1 X0P      -0.115000
      9 C9           4.0060     2.7310    -1.0910 ca         1 X0P      -0.186000
     10 C10          5.6300     1.5620     0.2920 ca         1 X0P      -0.186000
     11 C11          0.2590    -2.3810     1.1610 ca         1 X0P      -0.091600
     12 C12         -3.2490     2.2790     0.1060 ca         1 X0P      -0.114600
     13 C13          3.2530     1.4400     0.8360 ca         1 X0P      -0.124300
     14 C14         -1.0720    -2.8770     1.0700 ca         1 X0P      -0.012300
     15 C15         -4.0690     1.1330     0.2680 ca         1 X0P      -0.056300
     16 C16         -4.9080     3.2430    -1.4080 ca         1 X0P      -0.216000
     17 C17         -3.6720     3.3360    -0.7290 ca         1 X0P       0.140100
     18 C18          5.3390     2.3870    -0.8170 ca         1 X0P       0.121100
     19 C19          0.5820    -1.0470     1.8050 c          1 X0P       0.623700
     20 C21          1.8900    -6.4560    -1.0070 ca         1 X0P      -0.125000
     21 C25          2.1270     0.9270     1.7200 c3         1 X0P       0.138300
     22 C26         -2.2930    -2.0590     1.5100 c3         1 X0P       0.196100
     23 C27         -3.6570    -0.0400     1.1670 c3         1 X0P       0.220100
     24 C28         -2.9870    -1.4260    -0.7780 c3         1 X0P       0.149100
     25 C29          0.5750    -6.9430    -1.0870 ca         1 X0P      -0.118000
     26 N1           1.6280    -0.3560     1.2350 ns         1 X0P      -0.469900
     27 N2          -2.6370    -0.9490     0.5820 n3         1 X0P      -0.675600
     28 O1          -1.9560     2.6850     2.0140 o          1 X0P      -0.719500
     29 O3           0.0400    -0.6390     2.8240 o          1 X0P      -0.617100
     30 C40          2.1410    -5.1980    -0.4310 ca         1 X0P      -0.090000
     31 O4          -0.9040     2.2830     0.1730 o          1 X0P      -0.719500
     32 C50         -0.4910    -6.1750    -0.5890 ca         1 X0P      -0.100000
     33 O6          -2.8630     4.4510    -0.8490 os         1 X0P      -0.307100
     34 O8           6.3170     2.8780    -1.6560 os         1 X0P      -0.349100
     35 H3           2.3460    -2.8180     0.7200 ha         1 X0P       0.119000
     36 H40          3.1620    -4.8280    -0.3740 ha         1 X0P       0.109000
     37 H4          -2.3210    -4.5180     0.4080 ha         1 X0P       0.108000
     38 H50         -1.5070    -6.5580    -0.6530 ha         1 X0P       0.106000
     39 H5          -5.9350     0.1870    -0.3040 ha         1 X0P       0.088000
     40 H8          -6.6670     2.0400    -1.7740 ha         1 X0P       0.085000
     41 H6           1.9350     2.5330    -0.4960 ha         1 X0P       0.143000
     42 H9           3.7770     3.3640    -1.9440 ha         1 X0P       0.111000
     43 H7           4.8220     0.4540     1.9640 ha         1 X0P       0.143000
     44 H10          6.6500     1.2760     0.5310 ha         1 X0P       0.111000
     45 H16         -5.2600     4.0400    -2.0570 ha         1 X0P       0.093000
     46 H251         2.4860     0.8070     2.7520 h1         1 X0P       0.085200
     47 H252         1.3020     1.6520     1.7350 h1         1 X0P       0.085200
     48 H261        -3.1550    -2.7350     1.5980 h1         1 X0P       0.042700
     49 H262        -2.1240    -1.6750     2.5230 h1         1 X0P       0.042700
     50 H271        -3.2890     0.3630     2.1200 h1         1 X0P       0.039700
     51 H272        -4.5590    -0.6180     1.4120 h1         1 X0P       0.039700
     52 H1           2.0310    -0.7450     0.3930 hn         1 X0P       0.322500
     53 H21          2.7150    -7.0510    -1.3930 ha         1 X0P       0.102000
     54 H29          0.3810    -7.9160    -1.5340 ha         1 X0P       0.101000
     55 H221        -2.4290     6.3400    -1.6240 h1         1 X0P       0.022367
     56 H222        -3.3190     5.2670    -2.7240 h1         1 X0P       0.022367
     57 H223        -4.1540     6.0260    -1.3420 h1         1 X0P       0.022367
     58 H241         7.8940     1.5030    -1.5190 h1         1 X0P       0.030700
     59 H242         8.3150     3.0710    -2.2390 h1         1 X0P       0.030700
     60 H243         8.0550     2.9490    -0.4860 h1         1 X0P       0.030700
     61 H281        -3.9080    -2.0240    -0.7570 h1         1 X0P       0.028033
     62 H282        -3.1380    -0.5850    -1.4670 h1         1 X0P       0.028033
     63 H283        -2.1840    -2.0450    -1.1980 h1         1 X0P       0.028033
     64 C20         -1.9340     2.3990     0.8240 c          1 X0P       0.741600
     65 C22         -3.2120     5.5740    -1.6760 c3         1 X0P       0.153900
     66 C24          7.7120     2.5830    -1.4630 c3         1 X0P       0.154900
@<TRIPOS>BOND
     1     1     2 ar  
     2     1     3 ar  
     3     1    30 ar  
     4     2     4 ar  
     5     2    32 ar  
     6     3    11 ar  
     7     3    35 1   
     8     4    14 ar  
     9     4    37 1   
    10     5     8 ar  
    11     5    15 ar  
    12     5    39 1   
    13     6     9 ar  
    14     6    13 ar  
    15     6    41 1   
    16     7    10 ar  
    17     7    13 ar  
    18     7    43 1   
    19     8    16 ar  
    20     8    40 1   
    21     9    18 ar  
    22     9    42 1   
    23    10    18 ar  
    24    10    44 1   
    25    11    14 ar  
    26    11    19 1   
    27    12    15 ar  
    28    12    17 ar  
    29    12    64 1   
    30    13    21 1   
    31    14    22 1   
    32    15    23 1   
    33    16    17 ar  
    34    16    45 1   
    35    17    33 1   
    36    18    34 1   
    37    19    26 1   
    38    19    29 2   
    39    20    25 ar  
    40    20    30 ar  
    41    20    53 1   
    42    21    26 1   
    43    21    46 1   
    44    21    47 1   
    45    22    27 1   
    46    22    48 1   
    47    22    49 1   
    48    23    27 1   
    49    23    50 1   
    50    23    51 1   
    51    24    27 1   
    52    24    61 1   
    53    24    62 1   
    54    24    63 1   
    55    25    32 ar  
    56    25    54 1   
    57    26    52 1   
    58    28    64 1   
    59    30    36 1   
    60    31    64 1   
    61    32    38 1   
    62    33    65 1   
    63    34    66 1   
    64    55    65 1   
    65    56    65 1   
    66    57    65 1   
    67    58    66 1   
    68    59    66 1   
    69    60    66 1   
@<TRIPOS>SUBSTRUCTURE
     1 X0P         1 TEMP              0 ****  ****    0 ROOT
