@<TRIPOS>MOLECULE
X0P
   66    69     1     0     0
SMALL
abcg2


@<TRIPOS>ATOM
      1 C1           1.0590    -4.4540     0.0070 ca         1 X0P      -0.043000
      2 C2          -0.2660    -4.9430    -0.0760 ca         1 X0P      -0.027000
      3 C3           1.2750    -3.1810     0.5840 ca         1 X0P      -0.093000
      4 C4          -1.3190    -4.1350     0.4130 ca         1 X0P      -0.124000
      5 C5          -5.1610     1.2480     0.0420 ca         1 X0P      -0.158000
      6 C6           2.7320     2.1670    -0.3230 ca         1 X0P      -0.060000
      7 C7           4.3050     1.2680     1.2310 ca         1 X0P      -0.060000
      8 C8          -5.6360     2.2930    -0.7280 ca         1 X0P      -0.115000
      9 C9           3.7690     2.6390    -1.1060 ca         1 X0P      -0.186000
     10 C10          5.3610     1.7400     0.4590 ca         1 X0P      -0.186000
     11 C11          0.2380    -2.4240     1.0630 ca         1 X0P      -0.091600
     12 C12         -2.9290     2.1590    -0.0530 ca         1 X0P      -0.114600
     13 C13          2.9830     1.4720     0.8620 ca         1 X0P      -0.124300
     14 C14         -1.0990    -2.9070     0.9770 ca         1 X0P      -0.012300
     15 C15         -3.8110     1.1790     0.3940 ca         1 X0P      -0.056300
     16 C16         -4.7710     3.2880    -1.1680 ca         1 X0P      -0.216000
     17 C17         -3.4230     3.2150    -0.8320 ca         1 X0P       0.140100
     18 C18          5.0960     2.4280    -0.7220 ca         1 X0P       0.121100
     19 C19          0.5680    -1.1530     1.7860 c          1 X0P       0.623700
     20 C21          1.8740    -6.4760    -1.0320 ca         1 X0P      -0.125000
     21 C25          1.8450     0.9340     1.6830 c3         1 X0P       0.138300
     22 C26         -2.2620    -2.0660     1.4220 c3         1 X0P       0.196100
     23 C27         -3.3520     0.0290     1.2510 c3         1 X0P       0.220100
     24 C28         -2.8710    -1.2500    -0.7470 c3         1 X0P       0.149100
     25 C29          0.5520    -6.9620    -1.1220 ca         1 X0P      -0.118000
     26 N1           1.3810    -0.3230     1.1230 ns         1 X0P      -0.469900
     27 N2          -2.4380    -0.8910     0.5850 n3         1 X0P      -0.675600
     28 O1          -1.1660     2.4520     1.4640 o          1 X0P      -0.719500
     29 O3           0.1970    -0.9610     2.9380 o          1 X0P      -0.617100
     30 C40          2.1220    -5.2480    -0.4790 ca         1 X0P      -0.090000
     31 O4          -0.6730     1.8650    -0.6410 o          1 X0P      -0.719500
     32 C50         -0.4940    -6.2130    -0.6540 ca         1 X0P      -0.100000
     33 O6          -2.5130     4.1440    -1.2030 os         1 X0P      -0.307100
     34 O8           6.0420     2.9210    -1.5460 os         1 X0P      -0.349100
     35 H3           2.2940    -2.8230     0.6680 ha         1 X0P       0.119000
     36 H40          3.1350    -4.8730    -0.4080 ha         1 X0P       0.109000
     37 H4          -2.3370    -4.5000     0.3230 ha         1 X0P       0.108000
     38 H50         -1.5090    -6.5850    -0.7250 ha         1 X0P       0.106000
     39 H5          -5.8390     0.4730     0.3780 ha         1 X0P       0.088000
     40 H8          -6.6840     2.3440    -0.9940 ha         1 X0P       0.085000
     41 H6           1.7050     2.3290    -0.6290 ha         1 X0P       0.143000
     42 H9           3.5600     3.1770    -2.0230 ha         1 X0P       0.111000
     43 H7           4.5320     0.7350     2.1470 ha         1 X0P       0.143000
     44 H10          6.3730     1.5590     0.7940 ha         1 X0P       0.111000
     45 H16         -5.1620     4.1020    -1.7620 ha         1 X0P       0.093000
     46 H251         2.1770     0.7540     2.7070 h1         1 X0P       0.085200
     47 H252         1.0180     1.6460     1.7160 h1         1 X0P       0.085200
     48 H261        -3.1700    -2.6940     1.4310 h1         1 X0P       0.042700
     49 H262        -2.1060    -1.7320     2.4480 h1         1 X0P       0.042700
     50 H271        -2.8430     0.4070     2.1410 h1         1 X0P       0.039700
     51 H272        -4.2530    -0.5020     1.6020 h1         1 X0P       0.039700
     52 H1           1.4720    -0.4460     0.1270 hn         1 X0P       0.322500
     53 H21          2.6920    -7.0800    -1.4030 ha         1 X0P       0.102000
     54 H29          0.3680    -7.9320    -1.5640 ha         1 X0P       0.101000
     55 H221        -2.0640     5.8540    -2.1640 h1         1 X0P       0.022367
     56 H222        -3.3720     4.9370    -2.9300 h1         1 X0P       0.022367
     57 H223        -3.6830     5.8550    -1.4430 h1         1 X0P       0.022367
     58 H241         7.6590     1.6630    -1.1500 h1         1 X0P       0.030700
     59 H242         7.9870     3.1830    -1.9990 h1         1 X0P       0.030700
     60 H243         7.6590     3.2000    -0.2580 h1         1 X0P       0.030700
     61 H281        -3.8730    -1.7090    -0.7730 h1         1 X0P       0.028033
     62 H282        -2.8850    -0.3720    -1.3900 h1         1 X0P       0.028033
     63 H283        -2.1730    -1.9630    -1.1850 h1         1 X0P       0.028033
     64 C20         -1.4450     2.1430     0.2900 c          1 X0P       0.741600
     65 C22         -2.9450     5.2450    -1.9720 c3         1 X0P       0.153900
     66 C24          7.4000     2.7240    -1.2070 c3         1 X0P       0.154900
@<TRIPOS>BOND
     1     1     2 ar  
     2     1     3 ar  
     3     1    30 ar  
     4     2     4 ar  
     5     2    32 ar  
     6     3    11 ar  
     7     3    35 1   
     8     4    14 ar  
     9     4    37 1   
    10     5     8 ar  
    11     5    15 ar  
    12     5    39 1   
    13     6     9 ar  
    14     6    13 ar  
    15     6    41 1   
    16     7    10 ar  
    17     7    13 ar  
    18     7    43 1   
    19     8    16 ar  
    20     8    40 1   
    21     9    18 ar  
    22     9    42 1   
    23    10    18 ar  
    24    10    44 1   
    25    11    14 ar  
    26    11    19 1   
    27    12    15 ar  
    28    12    17 ar  
    29    12    64 1   
    30    13    21 1   
    31    14    22 1   
    32    15    23 1   
    33    16    17 ar  
    34    16    45 1   
    35    17    33 1   
    36    18    34 1   
    37    19    26 1   
    38    19    29 2   
    39    20    25 ar  
    40    20    30 ar  
    41    20    53 1   
    42    21    26 1   
    43    21    46 1   
    44    21    47 1   
    45    22    27 1   
    46    22    48 1   
    47    22    49 1   
    48    23    27 1   
    49    23    50 1   
    50    23    51 1   
    51    24    27 1   
    52    24    61 1   
    53    24    62 1   
    54    24    63 1   
    55    25    32 ar  
    56    25    54 1   
    57    26    52 1   
    58    28    64 1   
    59    30    36 1   
    60    31    64 1   
    61    32    38 1   
    62    33    65 1   
    63    34    66 1   
    64    55    65 1   
    65    56    65 1   
    66    57    65 1   
    67    58    66 1   
    68    59    66 1   
    69    60    66 1   
@<TRIPOS>SUBSTRUCTURE
     1 X0P         1 TEMP              0 ****  ****    0 ROOT
