@<TRIPOS>MOLECULE
X0Q
   31    33     1     0     0
SMALL
abcg2


@<TRIPOS>ATOM
      1 O22         -6.1880    -0.6450    -0.7670 o          1 X0Q      -0.532000
      2 S21         -5.2500     0.3750    -0.3480 sy         1 X0Q       1.199600
      3 O23         -4.9860     1.5540    -1.1490 o          1 X0Q      -0.532000
      4 N24         -5.7800     0.9210     1.1050 n8         1 X0Q      -1.012100
      5 C19         -3.7050    -0.4080    -0.1030 cc         1 X0Q      -0.493500
      6 S20         -2.2560     0.5000    -0.2250 ss         1 X0Q       0.324000
      7 C16         -1.3210    -0.8840     0.1770 cc         1 X0Q      -0.201500
      8 C17         -2.1070    -1.9870     0.3820 cd         1 X0Q      -0.131000
      9 C18         -3.4820    -1.7130     0.2210 cd         1 X0Q       0.011000
     10 C14          0.1210    -0.8130     0.2510 cc         1 X0Q       0.266500
     11 C15          0.9670     0.2490     0.0600 cd         1 X0Q      -0.182000
     12 N11          2.1930    -0.2730     0.2530 na         1 X0Q       0.222000
     13 N12          2.1150    -1.5680     0.5440 nd         1 X0Q      -0.177800
     14 N13          0.8800    -1.8980     0.5440 nc         1 X0Q      -0.332000
     15 C10          3.4430     0.3740     0.1910 ca         1 X0Q      -0.006200
     16 C9           3.5500     1.7040     0.5730 ca         1 X0Q      -0.098000
     17 C8           4.7790     2.3400     0.4990 ca         1 X0Q      -0.098000
     18 C7           5.9000     1.6530     0.0670 ca         1 X0Q      -0.066000
     19 C4           5.7810     0.3150    -0.3000 ca         1 X0Q       0.002000
     20 C3           4.5510    -0.3320    -0.2490 ca         1 X0Q      -0.051000
     21 C5           6.9330    -0.4050    -0.7450 cg         1 X0Q       0.314000
     22 N22          7.8630    -0.9820    -1.1010 n1         1 X0Q      -0.426000
     23 H242        -5.9920     0.1980     1.7800 hn         1 X0Q       0.480000
     24 H241        -5.2210     1.6610     1.5100 hn         1 X0Q       0.480000
     25 H18         -4.2610    -2.4520     0.3360 ha         1 X0Q       0.152000
     26 H17         -1.7160    -2.9600     0.6360 ha         1 X0Q       0.158000
     27 H15          0.7950     1.2740    -0.2170 h4         1 X0Q       0.177000
     28 H9           2.6870     2.2380     0.9470 ha         1 X0Q       0.129000
     29 H3           4.4630    -1.3670    -0.5460 ha         1 X0Q       0.156000
     30 H8           4.8650     3.3750     0.7960 ha         1 X0Q       0.131000
     31 H7           6.8620     2.1440     0.0190 ha         1 X0Q       0.136000
@<TRIPOS>BOND
     1     1     2 2   
     2     2     3 2   
     3     2     4 1   
     4     2     5 1   
     5     4    23 1   
     6     4    24 1   
     7     5     6 1   
     8     5     9 2   
     9     6     7 1   
    10     7     8 2   
    11     7    10 1   
    12     8     9 1   
    13     8    26 1   
    14     9    25 1   
    15    10    11 2   
    16    10    14 1   
    17    11    12 1   
    18    11    27 1   
    19    12    13 1   
    20    12    15 1   
    21    13    14 2   
    22    15    16 ar  
    23    15    20 ar  
    24    16    17 ar  
    25    16    28 1   
    26    17    18 ar  
    27    17    30 1   
    28    18    19 ar  
    29    18    31 1   
    30    19    20 ar  
    31    19    21 1   
    32    20    29 1   
    33    21    22 3   
@<TRIPOS>SUBSTRUCTURE
     1 X0Q         1 TEMP              0 ****  ****    0 ROOT
