@<TRIPOS>MOLECULE
X0Q
   31    33     1     0     0
SMALL
No Charge or Current Charge


@<TRIPOS>ATOM
      1 O22         -6.0440    -0.5690    -1.1750 o          1 X0Q      -0.532000
      2 S21         -5.1210     0.4270    -0.6340 sy         1 X0Q       1.199600
      3 O23         -4.8340     1.7060    -1.2750 o          1 X0Q      -0.532000
      4 N24         -5.6960     0.8140     0.8360 n8         1 X0Q      -1.012100
      5 C19         -3.6150    -0.3400    -0.1490 cc         1 X0Q      -0.493500
      6 S20         -2.0790     0.5010    -0.2810 ss         1 X0Q       0.324000
      7 C16         -1.2390    -0.9170     0.3380 cc         1 X0Q      -0.201500
      8 C17         -2.1060    -1.9530     0.5990 cd         1 X0Q      -0.131000
      9 C18         -3.4600    -1.6250     0.3150 cd         1 X0Q       0.011000
     10 C14          0.1790    -0.9970     0.5440 cc         1 X0Q       0.266500
     11 C15          1.0280     0.0330     0.2750 cd         1 X0Q      -0.182000
     12 N11          2.2270    -0.5210     0.6420 na         1 X0Q       0.222000
     13 N12          2.1240    -1.8170     1.0630 nd         1 X0Q      -0.177800
     14 N13          0.8420    -2.1000     1.0200 nc         1 X0Q      -0.332000
     15 C10          3.3880     0.2220     0.4240 ca         1 X0Q      -0.006200
     16 C9           3.5450     1.4940     1.0120 ca         1 X0Q      -0.098000
     17 C8           4.7180     2.2360     0.7900 ca         1 X0Q      -0.098000
     18 C7           5.7410     1.7110    -0.0190 ca         1 X0Q      -0.066000
     19 C4           5.5950     0.4400    -0.6070 ca         1 X0Q       0.002000
     20 C3           4.4180    -0.3020    -0.3830 ca         1 X0Q      -0.051000
     21 C5           6.6400    -0.0980    -1.4330 cg         1 X0Q       0.314000
     22 N22          7.4840    -0.5430    -2.1060 n1         1 X0Q      -0.426000
     23 H242        -4.8730     0.6400     1.4050 hn         1 X0Q       0.480000
     24 H241        -5.7320     1.8270     0.7560 hn         1 X0Q       0.480000
     25 H18         -4.2830    -2.3220     0.4550 ha         1 X0Q       0.152000
     26 H17         -1.7980    -2.9220     0.9800 ha         1 X0Q       0.158000
     27 H15          0.8890     1.0320    -0.1150 h4         1 X0Q       0.177000
     28 H9           2.7620     1.9060     1.6450 ha         1 X0Q       0.129000
     29 H3           4.3020    -1.2840    -0.8380 ha         1 X0Q       0.156000
     30 H8           4.8360     3.2170     1.2460 ha         1 X0Q       0.131000
     31 H7           6.6470     2.2930    -0.1850 ha         1 X0Q       0.136000
@<TRIPOS>BOND
     1     1     2 2   
     2     2     3 2   
     3     2     4 1   
     4     2     5 1   
     5     4    23 1   
     6     4    24 1   
     7     5     6 1   
     8     5     9 2   
     9     6     7 1   
    10     7     8 2   
    11     7    10 1   
    12     8     9 1   
    13     8    26 1   
    14     9    25 1   
    15    10    11 2   
    16    10    14 1   
    17    11    12 1   
    18    11    27 1   
    19    12    13 1   
    20    12    15 1   
    21    13    14 2   
    22    15    16 ar  
    23    15    20 ar  
    24    16    17 ar  
    25    16    28 1   
    26    17    18 ar  
    27    17    30 1   
    28    18    19 ar  
    29    18    31 1   
    30    19    20 ar  
    31    19    21 1   
    32    20    29 1   
    33    21    22 3   
@<TRIPOS>SUBSTRUCTURE
     1 X0Q         1 TEMP              0 ****  ****    0 ROOT
