@<TRIPOS>MOLECULE
X0R
   63    65     1     0     0
SMALL
No Charge or Current Charge


@<TRIPOS>ATOM
      1 Br           6.1910   -19.1680   -53.5180 br         1 X0R      -0.138100
      2 C28          5.9430   -20.9500   -54.1640 ca         1 X0R      -0.006900
      3 C27          6.3150   -21.2770   -55.4790 ca         1 X0R      -0.084500
      4 C26          6.1510   -22.5930   -55.9470 ca         1 X0R      -0.099000
      5 C29          5.4000   -21.9310   -53.3190 ca         1 X0R      -0.084500
      6 C30          5.2370   -23.2460   -53.7880 ca         1 X0R      -0.099000
      7 C25          5.6150   -23.5860   -55.1020 ca         1 X0R      -0.054300
      8 C24          5.4950   -25.0270   -55.5790 c3         1 X0R       0.117900
      9 S23          3.7880   -25.4460   -56.1760 ss         1 X0R      -0.505000
     10 C22          3.7370   -24.6090   -57.8390 c3         1 X0R       0.097600
     11 C20          4.2470   -25.5080   -58.9980 c3         1 X0R      -0.035300
     12 C21          3.6690   -25.0020   -60.3450 c          1 X0R       0.707000
     13 O2           4.0570   -23.9230   -60.7710 o          1 X0R      -0.708500
     14 O1           2.9020   -25.7320   -60.9570 o          1 X0R      -0.708500
     15 N19          5.7300   -25.5550   -59.0860 ns         1 X0R      -0.455900
     16 C19          6.5470   -26.5190   -58.5440 c          1 X0R       0.631100
     17 O19          6.0960   -27.5340   -58.0360 o          1 X0R      -0.649100
     18 N15          7.9190   -26.2190   -58.5450 n          1 X0R      -0.395400
     19 C16          8.8410   -27.1350   -57.8240 c3         1 X0R       0.103000
     20 C17          9.3360   -28.2970   -58.7100 c3         1 X0R      -0.096400
     21 C18         10.3050   -29.2420   -57.9750 c3         1 X0R      -0.086100
     22 C15          8.4910   -25.1310   -59.2200 c          1 X0R       0.603700
     23 O15          8.1440   -24.8500   -60.3590 o          1 X0R      -0.541100
     24 C11          9.3830   -24.2010   -58.4330 ca         1 X0R      -0.126600
     25 C10          9.1870   -24.0180   -57.0460 ca         1 X0R      -0.059000
     26 C12         10.3520   -23.4160   -59.0930 ca         1 X0R      -0.061000
     27 C13         11.1240   -22.4850   -58.3740 ca         1 X0R      -0.120000
     28 C14         10.9090   -22.3000   -56.9970 ca         1 X0R      -0.082000
     29 C9           9.9290   -23.0600   -56.3360 ca         1 X0R       0.009000
     30 C8           9.6130   -22.8190   -54.9600 cg         1 X0R      -0.060000
     31 C7           9.2700   -22.6090   -53.8090 ch         1 X0R      -0.127000
     32 C1           8.8000   -22.3610   -52.4860 ca         1 X0R      -0.008000
     33 C6           8.9670   -21.0820   -51.9180 ca         1 X0R      -0.046000
     34 C5           8.4700   -20.8130   -50.6300 ca         1 X0R      -0.171000
     35 C4           7.8060   -21.8180   -49.9110 ca         1 X0R       0.193000
     36 F4           7.3270   -21.5550   -48.6760 f          1 X0R      -0.178000
     37 C3           7.6350   -23.0930   -50.4660 ca         1 X0R      -0.194000
     38 C2           8.1300   -23.3640   -51.7500 ca         1 X0R       0.215000
     39 F2           7.9460   -24.5990   -52.2760 f          1 X0R      -0.158000
     40 H27          6.7390   -20.5180   -56.1300 ha         1 X0R       0.123500
     41 H29          5.1160   -21.6770   -52.3010 ha         1 X0R       0.123500
     42 H26          6.4540   -22.8410   -56.9610 ha         1 X0R       0.120500
     43 H30          4.8280   -24.0060   -53.1250 ha         1 X0R       0.120500
     44 H241         6.2210   -25.2110   -56.3750 h1         1 X0R       0.071700
     45 H242         5.7470   -25.6990   -54.7480 h1         1 X0R       0.071700
     46 H221         2.6860   -24.3610   -58.0390 h1         1 X0R       0.080200
     47 H222         4.2930   -23.6630   -57.8130 h1         1 X0R       0.080200
     48 H20          3.8610   -26.5240   -58.8500 h1         1 X0R       0.081700
     49 H19          6.1990   -24.8100   -59.5920 hn         1 X0R       0.369500
     50 H161         9.7180   -26.5820   -57.4660 h1         1 X0R       0.057200
     51 H162         8.3400   -27.5400   -56.9350 h1         1 X0R       0.057200
     52 H171         8.4740   -28.8740   -59.0670 hc         1 X0R       0.053200
     53 H172         9.8370   -27.8880   -59.5960 hc         1 X0R       0.053200
     54 H181        10.6290   -30.0500   -58.6420 hc         1 X0R       0.029033
     55 H182        11.1950   -28.6980   -57.6360 hc         1 X0R       0.029033
     56 H183         9.8190   -29.6920   -57.1010 hc         1 X0R       0.029033
     57 H10          8.4200   -24.5810   -56.5210 ha         1 X0R       0.131000
     58 H12         10.5070   -23.5260   -60.1650 ha         1 X0R       0.132000
     59 H13         11.8730   -21.8880   -58.8900 ha         1 X0R       0.115000
     60 H14         11.4840   -21.5530   -56.4540 ha         1 X0R       0.114000
     61 H6           9.4710   -20.2970   -52.4770 ha         1 X0R       0.127000
     62 H5           8.5940   -19.8260   -50.1920 ha         1 X0R       0.135000
     63 H3           7.1180   -23.8670   -49.9060 ha         1 X0R       0.153000
@<TRIPOS>BOND
     1     1     2 1   
     2     2     3 ar  
     3     2     5 ar  
     4     3     4 ar  
     5     3    40 1   
     6     4     7 ar  
     7     4    42 1   
     8     5     6 ar  
     9     5    41 1   
    10     6     7 ar  
    11     6    43 1   
    12     7     8 1   
    13     8     9 1   
    14     8    44 1   
    15     8    45 1   
    16     9    10 1   
    17    10    11 1   
    18    10    46 1   
    19    10    47 1   
    20    11    12 1   
    21    11    15 1   
    22    11    48 1   
    23    12    13 1   
    24    12    14 1   
    25    15    16 1   
    26    15    49 1   
    27    16    17 2   
    28    16    18 1   
    29    18    19 1   
    30    18    22 1   
    31    19    20 1   
    32    19    50 1   
    33    19    51 1   
    34    20    21 1   
    35    20    52 1   
    36    20    53 1   
    37    21    54 1   
    38    21    55 1   
    39    21    56 1   
    40    22    23 2   
    41    22    24 1   
    42    24    25 ar  
    43    24    26 ar  
    44    25    29 ar  
    45    25    57 1   
    46    26    27 ar  
    47    26    58 1   
    48    27    28 ar  
    49    27    59 1   
    50    28    29 ar  
    51    28    60 1   
    52    29    30 1   
    53    30    31 3   
    54    31    32 1   
    55    32    33 ar  
    56    32    38 ar  
    57    33    34 ar  
    58    33    61 1   
    59    34    35 ar  
    60    34    62 1   
    61    35    36 1   
    62    35    37 ar  
    63    37    38 ar  
    64    37    63 1   
    65    38    39 1   
@<TRIPOS>SUBSTRUCTURE
     1 X0R         1 TEMP              0 ****  ****    0 ROOT
