@<TRIPOS>MOLECULE
X0R
   63    65     1     0     0
SMALL
abcg2


@<TRIPOS>ATOM
      1 BR           4.5700   -19.7320   -55.1330 br         1 X0R      -0.138100
      2 C28          4.3330   -21.6070   -55.4580 ca         1 X0R      -0.006900
      3 C27          5.4430   -22.3950   -55.7190 ca         1 X0R      -0.084500
      4 C26          5.2540   -23.7500   -55.9650 ca         1 X0R      -0.099000
      5 C29          3.0520   -22.1450   -55.4300 ca         1 X0R      -0.084500
      6 C30          2.8880   -23.5010   -55.6780 ca         1 X0R      -0.099000
      7 C25          3.9830   -24.3210   -55.9510 ca         1 X0R      -0.054300
      8 C24          3.8240   -25.7910   -56.2230 c3         1 X0R       0.117900
      9 S23          2.6200   -26.2100   -57.5380 ss         1 X0R      -0.505000
     10 C22          3.0560   -25.1270   -58.9340 c3         1 X0R       0.097600
     11 C20          4.2770   -25.5030   -59.7830 c3         1 X0R      -0.035300
     12 C21          4.1620   -24.7380   -61.1370 c          1 X0R       0.707000
     13 O2           4.8850   -23.7240   -61.2850 o          1 X0R      -0.708500
     14 O1           3.3180   -25.1970   -61.9410 o          1 X0R      -0.708500
     15 N19          5.5290   -25.1670   -59.1320 ns         1 X0R      -0.455900
     16 C19          6.3570   -26.0780   -58.6160 c          1 X0R       0.631100
     17 O19          6.1010   -27.2730   -58.5050 o          1 X0R      -0.649100
     18 N15          7.6200   -25.5960   -58.1160 n          1 X0R      -0.395400
     19 C16          8.4760   -26.6320   -57.5020 c3         1 X0R       0.103000
     20 C17          9.3350   -27.3680   -58.5230 c3         1 X0R      -0.096400
     21 C18         10.2060   -28.4270   -57.8550 c3         1 X0R      -0.086100
     22 C15          8.0780   -24.3080   -58.2510 c          1 X0R       0.603700
     23 O15          7.4860   -23.4200   -58.8580 o          1 X0R      -0.541100
     24 C11          9.3800   -23.9630   -57.5820 ca         1 X0R      -0.126600
     25 C10          9.3750   -23.5990   -56.2420 ca         1 X0R      -0.059000
     26 C12         10.5600   -23.9120   -58.3200 ca         1 X0R      -0.061000
     27 C13         11.7410   -23.5120   -57.7020 ca         1 X0R      -0.120000
     28 C14         11.7490   -23.1510   -56.3630 ca         1 X0R      -0.082000
     29 C9          10.5600   -23.1860   -55.6190 ca         1 X0R       0.009000
     30 C8          10.5330   -22.8150   -54.2480 cg         1 X0R      -0.060000
     31 C7          10.4640   -22.4970   -53.0840 ch         1 X0R      -0.127000
     32 C1          10.3550   -22.1330   -51.7200 ca         1 X0R      -0.008000
     33 C6          11.4750   -21.7930   -50.9430 ca         1 X0R      -0.046000
     34 C5          11.3480   -21.4490   -49.6060 ca         1 X0R      -0.171000
     35 C4          10.0830   -21.4470   -49.0430 ca         1 X0R       0.193000
     36 F4           9.9470   -21.1200   -47.7400 f          1 X0R      -0.178000
     37 C3           8.9420   -21.7670   -49.7590 ca         1 X0R      -0.194000
     38 C2           9.1070   -22.1040   -51.0870 ca         1 X0R       0.215000
     39 F2           8.0120   -22.4230   -51.8050 f          1 X0R      -0.158000
     40 H27          6.4360   -21.9680   -55.7380 ha         1 X0R       0.123500
     41 H29          2.1970   -21.5170   -55.2220 ha         1 X0R       0.123500
     42 H26          6.1130   -24.3760   -56.1640 ha         1 X0R       0.120500
     43 H30          1.8910   -23.9230   -55.6730 ha         1 X0R       0.120500
     44 H241         4.7860   -26.2440   -56.4490 h1         1 X0R       0.071700
     45 H242         3.4150   -26.3030   -55.3490 h1         1 X0R       0.071700
     46 H221         2.1710   -25.1750   -59.5690 h1         1 X0R       0.080200
     47 H222         3.1520   -24.1030   -58.5710 h1         1 X0R       0.080200
     48 H20          4.2630   -26.5710   -59.9860 h1         1 X0R       0.081700
     49 H19          5.8910   -24.2350   -59.2980 hn         1 X0R       0.369500
     50 H161         9.1020   -26.1540   -56.7550 h1         1 X0R       0.057200
     51 H162         7.8190   -27.3270   -56.9870 h1         1 X0R       0.057200
     52 H171         8.6850   -27.8280   -59.2700 hc         1 X0R       0.053200
     53 H172         9.9650   -26.6450   -59.0480 hc         1 X0R       0.053200
     54 H181        10.8210   -28.9490   -58.5900 hc         1 X0R       0.029033
     55 H182        10.8730   -27.9760   -57.1170 hc         1 X0R       0.029033
     56 H183         9.5930   -29.1720   -57.3400 hc         1 X0R       0.029033
     57 H10          8.4610   -23.6400   -55.6660 ha         1 X0R       0.131000
     58 H12         10.5570   -24.1880   -59.3660 ha         1 X0R       0.132000
     59 H13         12.6610   -23.4810   -58.2720 ha         1 X0R       0.115000
     60 H14         12.6680   -22.8380   -55.8850 ha         1 X0R       0.114000
     61 H6          12.4520   -21.8050   -51.4060 ha         1 X0R       0.127000
     62 H5          12.2100   -21.1890   -49.0070 ha         1 X0R       0.135000
     63 H3           7.9630   -21.7570   -49.3010 ha         1 X0R       0.153000
@<TRIPOS>BOND
     1     1     2 1   
     2     2     3 ar  
     3     2     5 ar  
     4     3     4 ar  
     5     3    40 1   
     6     4     7 ar  
     7     4    42 1   
     8     5     6 ar  
     9     5    41 1   
    10     6     7 ar  
    11     6    43 1   
    12     7     8 1   
    13     8     9 1   
    14     8    44 1   
    15     8    45 1   
    16     9    10 1   
    17    10    11 1   
    18    10    46 1   
    19    10    47 1   
    20    11    12 1   
    21    11    15 1   
    22    11    48 1   
    23    12    13 1   
    24    12    14 1   
    25    15    16 1   
    26    15    49 1   
    27    16    17 2   
    28    16    18 1   
    29    18    19 1   
    30    18    22 1   
    31    19    20 1   
    32    19    50 1   
    33    19    51 1   
    34    20    21 1   
    35    20    52 1   
    36    20    53 1   
    37    21    54 1   
    38    21    55 1   
    39    21    56 1   
    40    22    23 2   
    41    22    24 1   
    42    24    25 ar  
    43    24    26 ar  
    44    25    29 ar  
    45    25    57 1   
    46    26    27 ar  
    47    26    58 1   
    48    27    28 ar  
    49    27    59 1   
    50    28    29 ar  
    51    28    60 1   
    52    29    30 1   
    53    30    31 3   
    54    31    32 1   
    55    32    33 ar  
    56    32    38 ar  
    57    33    34 ar  
    58    33    61 1   
    59    34    35 ar  
    60    34    62 1   
    61    35    36 1   
    62    35    37 ar  
    63    37    38 ar  
    64    37    63 1   
    65    38    39 1   
@<TRIPOS>SUBSTRUCTURE
     1 X0R         1 TEMP              0 ****  ****    0 ROOT
