@<TRIPOS>MOLECULE
X0S
   20    20     1     0     0
SMALL
abcg2


@<TRIPOS>ATOM
      1 C4           4.9070    44.6200    18.2740 ca         1 X0S      -0.018000
      2 C5           4.2630    45.8440    18.3920 ca         1 X0S      -0.254500
      3 C6           4.9430    47.0110    18.0470 ca         1 X0S       0.205000
      4 C7           2.2760    43.8290    20.6370 c3         1 X0S       0.218100
      5 N1           2.1870    44.3850    19.2960 n7         1 X0S      -0.947300
      6 C3           6.2180    44.5600    17.8250 ca         1 X0S      -0.130000
      7 C1           6.2500    46.9530    17.5920 ca         1 X0S      -0.121000
      8 C2           6.8870    45.7250    17.4870 ca         1 X0S      -0.054000
      9 O1           2.6230    46.6720    20.2430 o          1 X0S      -0.533500
     10 O2           1.7500    46.3990    17.8950 o          1 X0S      -0.533500
     11 S1           2.5810    45.9330    18.9910 sy         1 X0S       1.181600
     12 CL1          4.1820    48.5570    18.1610 cl         1 X0S      -0.164000
     13 H4           4.3810    43.7120    18.5310 ha         1 X0S       0.129000
     14 H7           2.1430    42.7530    20.5540 h1         1 X0S       0.047033
     15 H8           3.2620    44.0090    21.0600 h1         1 X0S       0.047033
     16 H6           1.5190    44.2270    21.3130 h1         1 X0S       0.047033
     17 H5           1.4800    44.0100    18.6780 hn         1 X0S       0.505000
     18 H3           6.7110    43.6010    17.7420 ha         1 X0S       0.121000
     19 H1           6.7670    47.8640    17.3240 ha         1 X0S       0.133000
     20 H2           7.9100    45.6870    17.1370 ha         1 X0S       0.121000
@<TRIPOS>BOND
     1     1     2 ar  
     2     1     6 ar  
     3     1    13 1   
     4     2     3 ar  
     5     2    11 1   
     6     3     7 ar  
     7     3    12 1   
     8     4     5 1   
     9     4    14 1   
    10     4    15 1   
    11     4    16 1   
    12     5    11 1   
    13     5    17 1   
    14     6     8 ar  
    15     6    18 1   
    16     7     8 ar  
    17     7    19 1   
    18     8    20 1   
    19     9    11 2   
    20    10    11 2   
@<TRIPOS>SUBSTRUCTURE
     1 X0S         1 TEMP              0 ****  ****    0 ROOT
