@<TRIPOS>MOLECULE
X0S
   20    20     1     0     0
SMALL
No Charge or Current Charge


@<TRIPOS>ATOM
      1 C4           4.6940    44.5710    17.3270 ca         1 X0S      -0.018000
      2 C5           4.0540    45.5520    18.1200 ca         1 X0S      -0.254500
      3 C6           4.8430    46.5620    18.7290 ca         1 X0S       0.205000
      4 C7           2.8460    44.6610    20.8230 c3         1 X0S       0.218100
      5 N1           2.1180    44.3580    19.5750 n7         1 X0S      -0.947300
      6 C3           6.0840    44.5990    17.1330 ca         1 X0S      -0.130000
      7 C1           6.2350    46.5770    18.5270 ca         1 X0S      -0.121000
      8 C2           6.8580    45.6040    17.7310 ca         1 X0S      -0.054000
      9 O1           1.6590    46.6780    18.7840 o          1 X0S      -0.533500
     10 O2           1.7140    44.7040    17.1580 o          1 X0S      -0.533500
     11 S1           2.2580    45.4320    18.3060 sy         1 X0S       1.181600
     12 Cl1          4.1930    47.8230    19.7780 cl         1 X0S      -0.164000
     13 H4           4.1160    43.7770    16.8570 ha         1 X0S       0.129000
     14 H7           2.5990    43.9250    21.5990 h1         1 X0S       0.047033
     15 H8           3.9330    44.6250    20.6710 h1         1 X0S       0.047033
     16 H6           2.5850    45.6550    21.2100 h1         1 X0S       0.047033
     17 H5           1.1170    44.4300    19.7530 hn         1 X0S       0.505000
     18 H3           6.5620    43.8390    16.5190 ha         1 X0S       0.121000
     19 H1           6.8370    47.3510    18.9960 ha         1 X0S       0.133000
     20 H2           7.9350    45.6260    17.5820 ha         1 X0S       0.121000
@<TRIPOS>BOND
     1     1     2 ar  
     2     1     6 ar  
     3     1    13 1   
     4     2     3 ar  
     5     2    11 1   
     6     3     7 ar  
     7     3    12 1   
     8     4     5 1   
     9     4    14 1   
    10     4    15 1   
    11     4    16 1   
    12     5    11 1   
    13     5    17 1   
    14     6     8 ar  
    15     6    18 1   
    16     7     8 ar  
    17     7    19 1   
    18     8    20 1   
    19     9    11 2   
    20    10    11 2   
@<TRIPOS>SUBSTRUCTURE
     1 X0S         1 TEMP              0 ****  ****    0 ROOT
