@<TRIPOS>MOLECULE
X0T
   32    33     1     0     0
SMALL
abcg2


@<TRIPOS>ATOM
      1 CAB          3.5440    -1.7570    -0.6560 c3         1 X0T       0.101300
      2 N3           2.5420    -0.7770    -0.2700 n          1 X0T      -0.358300
      3 C2           2.8470     0.5590    -0.1990 c          1 X0T       0.628000
      4 O2           3.9610     0.9750    -0.4510 o          1 X0T      -0.554000
      5 N1           1.8160     1.4220     0.1790 n          1 X0T      -0.369400
      6 CAA          2.1190     2.8470     0.2700 c3         1 X0T       0.084300
      7 C6           0.5000     1.0710     0.4720 c          1 X0T       0.637600
      8 O6          -0.3210     1.9190     0.7890 o          1 X0T      -0.564000
      9 C5           0.2740    -0.3280     0.3530 cc         1 X0T      -0.340600
     10 C4           1.2730    -1.1970     0.0020 cd         1 X0T       0.433900
     11 N9           0.8380    -2.4680    -0.0250 nd         1 X0T      -0.699000
     12 C8          -0.4340    -2.3760     0.3180 cc         1 X0T       0.452400
     13 N7          -0.8300    -1.1210     0.5650 na         1 X0T      -0.107500
     14 CAI         -2.1710    -0.7020     0.9190 c3         1 X0T       0.030600
     15 CAO         -2.9850    -0.2680    -0.3030 c3         1 X0T       0.160300
     16 OAF         -2.2930     0.6450    -1.1140 oh         1 X0T      -0.633000
     17 CAH         -4.3320     0.2610     0.1640 c3         1 X0T       0.131600
     18 OAE         -5.1380     0.4990    -0.9620 oh         1 X0T      -0.640000
     19 HAB1         4.5100    -1.2740    -0.7300 h1         1 X0T       0.059700
     20 HAB2         3.5970    -2.5460     0.0910 h1         1 X0T       0.059700
     21 HAB3         3.2920    -2.1990    -1.6190 h1         1 X0T       0.059700
     22 HAA1         3.1610     3.0090     0.0300 h1         1 X0T       0.059033
     23 HAA2         1.5050     3.4100    -0.4300 h1         1 X0T       0.059033
     24 HAA3         1.9280     3.2100     1.2780 h1         1 X0T       0.059033
     25 H8          -1.1100    -3.2130     0.4090 h5         1 X0T       0.062100
     26 HAI1        -2.6620    -1.5430     1.4080 h1         1 X0T       0.074700
     27 HAI2        -2.0980     0.0990     1.6540 h1         1 X0T       0.074700
     28 HAO         -3.1550    -1.1510    -0.9280 h1         1 X0T       0.088700
     29 HAF         -2.0530     1.4170    -0.5860 ho         1 X0T       0.460000
     30 HAH1        -4.7840    -0.4740     0.8420 h1         1 X0T       0.021200
     31 HAH2        -4.1710     1.1770     0.7520 h1         1 X0T       0.021200
     32 HAE         -5.9730     0.8670    -0.6600 ho         1 X0T       0.446000
@<TRIPOS>BOND
     1     1     2 1   
     2     1    19 1   
     3     1    20 1   
     4     1    21 1   
     5     2     3 1   
     6     2    10 1   
     7     3     4 2   
     8     3     5 1   
     9     5     6 1   
    10     5     7 1   
    11     6    22 1   
    12     6    23 1   
    13     6    24 1   
    14     7     8 2   
    15     7     9 1   
    16     9    10 2   
    17     9    13 1   
    18    10    11 1   
    19    11    12 2   
    20    12    13 1   
    21    12    25 1   
    22    13    14 1   
    23    14    15 1   
    24    14    26 1   
    25    14    27 1   
    26    15    16 1   
    27    15    17 1   
    28    15    28 1   
    29    16    29 1   
    30    17    18 1   
    31    17    30 1   
    32    17    31 1   
    33    18    32 1   
@<TRIPOS>SUBSTRUCTURE
     1 X0T         1 TEMP              0 ****  ****    0 ROOT
