@<TRIPOS>MOLECULE
X0T
   32    33     1     0     0
SMALL
No Charge or Current Charge


@<TRIPOS>ATOM
      1 CAB          3.6610    -1.7760    -0.5920 c3         1 X0T       0.101300
      2 N3           2.5820    -0.8120    -0.2660 n          1 X0T      -0.358300
      3 C2           2.8880     0.5580    -0.2390 c          1 X0T       0.628000
      4 O2           4.0220     0.9480    -0.4840 o          1 X0T      -0.554000
      5 N1           1.8590     1.4630     0.0700 n          1 X0T      -0.369400
      6 CAA          2.1880     2.9150     0.0940 c3         1 X0T       0.084300
      7 C6           0.5390     1.0800     0.3260 c          1 X0T       0.637600
      8 O6          -0.3620     1.8780     0.5430 o          1 X0T      -0.564000
      9 C5           0.3080    -0.3610     0.2900 cc         1 X0T      -0.340600
     10 C4           1.3030    -1.2370    -0.0030 cd         1 X0T       0.433900
     11 N9           0.8340    -2.5300     0.0050 nd         1 X0T      -0.699000
     12 C8          -0.4540    -2.4430     0.3090 cc         1 X0T       0.452400
     13 N7          -0.8250    -1.1280     0.5010 na         1 X0T      -0.107500
     14 CAI         -2.1620    -0.6550     0.9160 c3         1 X0T       0.030600
     15 CAO         -3.0770    -0.1970    -0.2490 c3         1 X0T       0.160300
     16 OAF         -2.4740     0.9090    -0.9550 oh         1 X0T      -0.633000
     17 CAH         -4.4930     0.1990     0.2650 c3         1 X0T       0.131600
     18 OAE         -5.3940     0.4670    -0.8230 oh         1 X0T      -0.640000
     19 HAB1         4.5120    -1.6230     0.0840 h1         1 X0T       0.059700
     20 HAB2         3.3190    -2.8130    -0.4860 h1         1 X0T       0.059700
     21 HAB3         3.9950    -1.6210    -1.6260 h1         1 X0T       0.059700
     22 HAA1         3.1860     3.0770     0.5210 h1         1 X0T       0.059033
     23 HAA2         2.1680     3.3130    -0.9290 h1         1 X0T       0.059033
     24 HAA3         1.4720     3.4760     0.7070 h1         1 X0T       0.059033
     25 H8          -1.1510    -3.2670     0.4140 h5         1 X0T       0.062100
     26 HAI1        -2.6610    -1.4760     1.4490 h1         1 X0T       0.074700
     27 HAI2        -2.0430     0.1630     1.6370 h1         1 X0T       0.074700
     28 HAO         -3.2010    -1.0500    -0.9310 h1         1 X0T       0.088700
     29 HAF         -1.8020     1.3120    -0.3500 ho         1 X0T       0.460000
     30 HAH1        -4.8880    -0.6230     0.8770 h1         1 X0T       0.021200
     31 HAH2        -4.4070     1.0800     0.9150 h1         1 X0T       0.021200
     32 HAE         -6.2430     0.7690    -0.4280 ho         1 X0T       0.446000
@<TRIPOS>BOND
     1     1     2 1   
     2     1    19 1   
     3     1    20 1   
     4     1    21 1   
     5     2     3 1   
     6     2    10 1   
     7     3     4 2   
     8     3     5 1   
     9     5     6 1   
    10     5     7 1   
    11     6    22 1   
    12     6    23 1   
    13     6    24 1   
    14     7     8 2   
    15     7     9 1   
    16     9    10 2   
    17     9    13 1   
    18    10    11 1   
    19    11    12 2   
    20    12    13 1   
    21    12    25 1   
    22    13    14 1   
    23    14    15 1   
    24    14    26 1   
    25    14    27 1   
    26    15    16 1   
    27    15    17 1   
    28    15    28 1   
    29    16    29 1   
    30    17    18 1   
    31    17    30 1   
    32    17    31 1   
    33    18    32 1   
@<TRIPOS>SUBSTRUCTURE
     1 X0T         1 TEMP              0 ****  ****    0 ROOT
