@<TRIPOS>MOLECULE
X0U
   22    24     1     0     0
SMALL
bcc


@<TRIPOS>ATOM
      1 N1           2.1350    -1.3260     0.0040 nc         1 X0U      -0.622100
      2 N2           4.3780    -0.6800     0.1040 nv         1 X0U      -0.895800
      3 C1          -1.5150    -0.7400     0.0070 ca         1 X0U       0.073100
      4 C2          -1.5190     0.6650     0.0460 ca         1 X0U       0.050100
      5 C3          -3.8160     0.6360    -0.3480 c6         1 X0U       0.094400
      6 C4          -3.8280    -0.7110     0.3320 c6         1 X0U       0.095400
      7 C5          -0.3210    -1.4430    -0.0070 ca         1 X0U      -0.098000
      8 C6           0.8850    -0.7520     0.0190 ca         1 X0U       0.142400
      9 C7           0.8630     0.6500     0.0730 ca         1 X0U      -0.062100
     10 C8          -0.3220     1.3650     0.0780 ca         1 X0U      -0.080000
     11 C9           3.0560    -0.4240     0.0470 cd         1 X0U       0.631100
     12 O1          -2.6690    -1.4490    -0.0190 os         1 X0U      -0.305900
     13 O2          -2.6750     1.3750     0.0540 os         1 X0U      -0.306900
     14 S            2.4970     1.2470     0.1120 ss         1 X0U      -0.158100
     15 H21N         4.6570    -1.6210    -0.1210 hn         1 X0U       0.427300
     16 H22N         5.0290     0.0290    -0.1870 hn         1 X0U       0.427300
     17 H5          -0.3330    -2.5250    -0.0390 ha         1 X0U       0.163000
     18 H8          -0.3350     2.4470     0.1080 ha         1 X0U       0.155000
     19 H31C        -3.8240     0.5130    -1.4370 h1         1 X0U       0.067200
     20 H32C        -4.6920     1.2140    -0.0610 h1         1 X0U       0.067200
     21 H41C        -3.8830    -0.5890     1.4190 h1         1 X0U       0.067700
     22 H42C        -4.6900    -1.2930     0.0090 h1         1 X0U       0.067700
@<TRIPOS>BOND
     1     1     8 1   
     2     1    11 2   
     3     2    11 1   
     4     2    15 1   
     5     2    16 1   
     6     3     4 ar  
     7     3     7 ar  
     8     3    12 1   
     9     4    10 ar  
    10     4    13 1   
    11     5     6 1   
    12     5    13 1   
    13     5    19 1   
    14     5    20 1   
    15     6    12 1   
    16     6    21 1   
    17     6    22 1   
    18     7     8 ar  
    19     7    17 1   
    20     8     9 ar  
    21     9    10 ar  
    22     9    14 1   
    23    10    18 1   
    24    11    14 1   
@<TRIPOS>SUBSTRUCTURE
     1 X0U         1 TEMP              0 ****  ****    0 ROOT
