@<TRIPOS>MOLECULE
X0U
   22    24     1     0     0
SMALL
No Charge or Current Charge


@<TRIPOS>ATOM
      1 N1           2.1960    -1.3420     0.0380 nc         1 X0U      -0.622100
      2 N2           4.3690    -0.7190     0.0860 nv         1 X0U      -1.006200
      3 C1          -1.4880    -0.7450     0.0100 ca         1 X0U       0.073100
      4 C2          -1.4980     0.6770     0.0370 ca         1 X0U       0.050100
      5 C3          -3.8810     0.6450    -0.3560 c6         1 X0U       0.117600
      6 C4          -3.8830    -0.7400     0.3260 c6         1 X0U       0.118600
      7 C5          -0.2660    -1.4440    -0.0010 ca         1 X0U      -0.080000
      8 C6           0.9430    -0.7300     0.0390 ca         1 X0U       0.142400
      9 C7           0.9150     0.6560     0.0860 ca         1 X0U      -0.189000
     10 C8          -0.2850     1.3850     0.0860 ca         1 X0U      -0.062000
     11 C9           3.0750    -0.3520     0.0870 cd         1 X0U       0.631100
     12 O1          -2.6730    -1.4550    -0.0070 os         1 X0U      -0.329100
     13 O2          -2.6910     1.3750     0.0150 os         1 X0U      -0.330100
     14 S            2.5290     1.3420     0.1320 ss         1 X0U      -0.031200
     15 H21N         4.5520    -1.6770    -0.1880 hn         1 X0U       0.482500
     16 H22N         5.0570    -0.0280    -0.1920 hn         1 X0U       0.482500
     17 H5          -0.2590    -2.5290    -0.0290 ha         1 X0U       0.145000
     18 H8          -0.2800     2.4720     0.1150 ha         1 X0U       0.137000
     19 H31C        -3.8950     0.5150    -1.4480 h1         1 X0U       0.067200
     20 H32C        -4.7690     1.2230    -0.0660 h1         1 X0U       0.067200
     21 H41C        -3.9330    -0.6110     1.4170 h1         1 X0U       0.067700
     22 H42C        -4.7550    -1.3290     0.0080 h1         1 X0U       0.067700
@<TRIPOS>BOND
     1     1     8 1   
     2     1    11 2   
     3     2    11 1   
     4     2    15 1   
     5     2    16 1   
     6     3     4 ar  
     7     3     7 ar  
     8     3    12 1   
     9     4    10 ar  
    10     4    13 1   
    11     5     6 1   
    12     5    13 1   
    13     5    19 1   
    14     5    20 1   
    15     6    12 1   
    16     6    21 1   
    17     6    22 1   
    18     7     8 ar  
    19     7    17 1   
    20     8     9 ar  
    21     9    10 ar  
    22     9    14 1   
    23    10    18 1   
    24    11    14 1   
@<TRIPOS>SUBSTRUCTURE
     1 X0U         1 TEMP              0 ****  ****    0 ROOT
