@<TRIPOS>MOLECULE
X0V
   19    19     1     0     0
SMALL
bcc


@<TRIPOS>ATOM
      1 C1           2.0010     0.0780     0.0320 c3         1 X0V       0.723200
      2 C2           0.5290    -0.1390    -0.0280 ca         1 X0V      -0.208300
      3 C3          -1.7040     0.7950     0.0420 ca         1 X0V       0.071600
      4 C4          -0.3290     0.9590     0.0400 ca         1 X0V      -0.112000
      5 C6          -2.2440    -0.5120    -0.0090 ca         1 X0V       0.134600
      6 C7           0.0030    -1.4180    -0.1050 ca         1 X0V      -0.068000
      7 F1           2.4430     0.2230     1.2960 f          1 X0V      -0.238633
      8 F2           2.6950    -0.9410    -0.4930 f          1 X0V      -0.238633
      9 F3           2.3840     1.1860    -0.6210 f          1 X0V      -0.238633
     10 C8          -1.3740    -1.5940    -0.0930 ca         1 X0V      -0.183000
     11 N1          -2.5800     1.8700     0.1470 nv         1 X0V      -0.810200
     12 N2          -3.6150    -0.6680    -0.0240 nv         1 X0V      -0.815200
     13 H4           0.0690     1.9670     0.0810 ha         1 X0V       0.143000
     14 H7           0.6410    -2.2890    -0.1650 ha         1 X0V       0.147000
     15 H11N        -2.1320     2.7690     0.0550 hn         1 X0V       0.384300
     16 H12N        -3.3690     1.8190    -0.4830 hn         1 X0V       0.384300
     17 H8          -1.7820    -2.5960    -0.1380 ha         1 X0V       0.136000
     18 H21N        -4.1230    -0.0160     0.5570 hn         1 X0V       0.394800
     19 H22N        -3.9320    -1.6110     0.1370 hn         1 X0V       0.394800
@<TRIPOS>BOND
     1     1     2 1   
     2     1     7 1   
     3     1     8 1   
     4     1     9 1   
     5     2     4 ar  
     6     2     6 ar  
     7     3     4 ar  
     8     3     5 ar  
     9     3    11 1   
    10     4    13 1   
    11     5    10 ar  
    12     5    12 1   
    13     6    10 ar  
    14     6    14 1   
    15    10    17 1   
    16    11    15 1   
    17    11    16 1   
    18    12    18 1   
    19    12    19 1   
@<TRIPOS>SUBSTRUCTURE
     1 X0V         1 TEMP              0 ****  ****    0 ROOT
