@<TRIPOS>MOLECULE
X0V
   19    19     1     0     0
SMALL
No Charge or Current Charge


@<TRIPOS>ATOM
      1 C1           2.0670     0.0770     0.0170 c3         1 X0V       0.359300
      2 C2           0.5470    -0.1280    -0.0050 ca         1 X0V      -0.208300
      3 C3          -1.7240     0.8130     0.0360 ca         1 X0V       0.210000
      4 C4          -0.3260     0.9820     0.0470 ca         1 X0V      -0.094000
      5 C6          -2.2650    -0.5130    -0.0140 ca         1 X0V       0.273000
      6 C7          -0.0020    -1.4260    -0.0530 ca         1 X0V      -0.050000
      7 F1           2.5370     0.1310     1.2830 f          1 X0V      -0.117333
      8 F2           2.7320    -0.9220    -0.6090 f          1 X0V      -0.117333
      9 F3           2.4390     1.2260    -0.5920 f          1 X0V      -0.117333
     10 C8          -1.3940    -1.6120    -0.0600 ca         1 X0V      -0.165000
     11 N1          -2.5280     1.9480     0.0660 nv         1 X0V      -1.059000
     12 N2          -3.6290    -0.7590    -0.0020 nv         1 X0V      -1.064000
     13 H4           0.0840     1.9890     0.0960 ha         1 X0V       0.125000
     14 H7           0.6480    -2.3000    -0.0810 ha         1 X0V       0.129000
     15 H11N        -2.0990     2.8650    -0.0430 hn         1 X0V       0.439500
     16 H12N        -3.5030     1.8690    -0.2150 hn         1 X0V       0.439500
     17 H8          -1.7940    -2.6220    -0.0960 ha         1 X0V       0.118000
     18 H21N        -4.2490    -0.0210     0.3230 hn         1 X0V       0.450000
     19 H22N        -3.9580    -1.7140     0.1300 hn         1 X0V       0.450000
@<TRIPOS>BOND
     1     1     2 1   
     2     1     7 1   
     3     1     8 1   
     4     1     9 1   
     5     2     4 ar  
     6     2     6 ar  
     7     3     4 ar  
     8     3     5 ar  
     9     3    11 1   
    10     4    13 1   
    11     5    10 ar  
    12     5    12 1   
    13     6    10 ar  
    14     6    14 1   
    15    10    17 1   
    16    11    15 1   
    17    11    16 1   
    18    12    18 1   
    19    12    19 1   
@<TRIPOS>SUBSTRUCTURE
     1 X0V         1 TEMP              0 ****  ****    0 ROOT
