@<TRIPOS>MOLECULE
X0W
   25    26     1     0     0
SMALL
abcg2


@<TRIPOS>ATOM
      1 N            2.0850    -1.3500     0.0260 nc         1 X0W      -0.533100
      2 C1           0.8360     0.6260    -0.0070 ca         1 X0W      -0.173000
      3 O1          -2.7620     1.2420    -0.0280 os         1 X0W      -0.317100
      4 C2          -0.3520     1.3570    -0.0220 ca         1 X0W      -0.147000
      5 O2          -2.7840    -1.3120     0.0070 os         1 X0W      -0.319100
      6 C3          -1.5480     0.6670    -0.0160 ca         1 X0W       0.130100
      7 C4          -2.8320     2.6530    -0.0530 c3         1 X0W       0.143900
      8 C5          -1.5590    -0.7570     0.0030 ca         1 X0W       0.117100
      9 C6          -2.8740    -2.7210     0.0390 c3         1 X0W       0.143900
     10 C7          -0.3750    -1.4630     0.0170 ca         1 X0W      -0.129000
     11 C8           0.8400    -0.7660     0.0120 ca         1 X0W       0.096400
     12 C9           3.0210    -0.4680     0.0180 cd         1 X0W       0.399200
     13 C10          4.4760    -0.7700     0.0290 c3         1 X0W      -0.116400
     14 S            2.4700     1.1950    -0.0070 ss         1 X0W       0.003800
     15 H2          -0.3250     2.4380    -0.0360 ha         1 X0W       0.130000
     16 H41C        -3.8880     2.9090    -0.0660 h1         1 X0W       0.042033
     17 H42C        -2.3710     3.1010     0.8310 h1         1 X0W       0.042033
     18 H43C        -2.3570     3.0690    -0.9470 h1         1 X0W       0.042033
     19 H61C        -3.9340    -2.9620     0.0490 h1         1 X0W       0.042033
     20 H62C        -2.4170    -3.1810    -0.8410 h1         1 X0W       0.042033
     21 H63C        -2.4090    -3.1390     0.9360 h1         1 X0W       0.042033
     22 H7          -0.3550    -2.5440     0.0310 ha         1 X0W       0.138000
     23 H101         4.9660    -0.3790    -0.8630 hc         1 X0W       0.060033
     24 H102         4.9650    -0.3220     0.8950 hc         1 X0W       0.060033
     25 H103         4.6250    -1.8470     0.0640 hc         1 X0W       0.060033
@<TRIPOS>BOND
     1     1    11 1   
     2     1    12 2   
     3     2     4 ar  
     4     2    11 ar  
     5     2    14 1   
     6     3     6 1   
     7     3     7 1   
     8     4     6 ar  
     9     4    15 1   
    10     5     8 1   
    11     5     9 1   
    12     6     8 ar  
    13     7    16 1   
    14     7    17 1   
    15     7    18 1   
    16     8    10 ar  
    17     9    19 1   
    18     9    20 1   
    19     9    21 1   
    20    10    11 ar  
    21    10    22 1   
    22    12    13 1   
    23    12    14 1   
    24    13    23 1   
    25    13    24 1   
    26    13    25 1   
@<TRIPOS>SUBSTRUCTURE
     1 X0W         1 TEMP              0 ****  ****    0 ROOT
