@<TRIPOS>MOLECULE
X0W
   25    26     1     0     0
SMALL
No Charge or Current Charge


@<TRIPOS>ATOM
      1 N            2.1050    -1.4050     0.0070 nc         1 X0W      -0.533100
      2 C1           0.8590     0.6070     0.0240 ca         1 X0W      -0.173000
      3 O1          -2.7750     1.3380     0.0010 os         1 X0W      -0.317100
      4 C2          -0.3280     1.3530     0.0230 ca         1 X0W      -0.147000
      5 O2          -2.7990    -1.4080    -0.0380 os         1 X0W      -0.319100
      6 C3          -1.5640     0.6640     0.0020 ca         1 X0W       0.130100
      7 C4          -2.8590     2.7730     0.0200 c3         1 X0W       0.143900
      8 C5          -1.5750    -0.7570    -0.0180 ca         1 X0W       0.117100
      9 C6          -2.9120    -2.8420    -0.0590 c3         1 X0W       0.143900
     10 C7          -0.3510    -1.4720    -0.0160 ca         1 X0W      -0.129000
     11 C8           0.8650    -0.7750     0.0040 ca         1 X0W       0.096400
     12 C9           3.0210    -0.4250     0.0290 cd         1 X0W       0.399200
     13 C10          4.4840    -0.7640     0.0370 c3         1 X0W      -0.116400
     14 S            2.4800     1.2730     0.0480 ss         1 X0W       0.003800
     15 H2          -0.2760     2.4380     0.0390 ha         1 X0W       0.130000
     16 H41C        -3.9080     3.0930     0.0150 h1         1 X0W       0.042033
     17 H42C        -2.3850     3.1800     0.9220 h1         1 X0W       0.042033
     18 H43C        -2.3680     3.2040    -0.8620 h1         1 X0W       0.042033
     19 H61C        -3.9680    -3.1390    -0.0730 h1         1 X0W       0.042033
     20 H62C        -2.4300    -3.2580    -0.9530 h1         1 X0W       0.042033
     21 H63C        -2.4460    -3.2830     0.8320 h1         1 X0W       0.042033
     22 H7          -0.3270    -2.5570    -0.0310 ha         1 X0W       0.138000
     23 H101         4.7570    -1.3360    -0.8570 hc         1 X0W       0.060033
     24 H102         5.1010     0.1420     0.0580 hc         1 X0W       0.060033
     25 H103         4.7400    -1.3650     0.9170 hc         1 X0W       0.060033
@<TRIPOS>BOND
     1     1    11 1   
     2     1    12 2   
     3     2     4 ar  
     4     2    11 ar  
     5     2    14 1   
     6     3     6 1   
     7     3     7 1   
     8     4     6 ar  
     9     4    15 1   
    10     5     8 1   
    11     5     9 1   
    12     6     8 ar  
    13     7    16 1   
    14     7    17 1   
    15     7    18 1   
    16     8    10 ar  
    17     9    19 1   
    18     9    20 1   
    19     9    21 1   
    20    10    11 ar  
    21    10    22 1   
    22    12    13 1   
    23    12    14 1   
    24    13    23 1   
    25    13    24 1   
    26    13    25 1   
@<TRIPOS>SUBSTRUCTURE
     1 X0W         1 TEMP              0 ****  ****    0 ROOT
