@<TRIPOS>MOLECULE
X0X
   22    22     1     0     0
SMALL
No Charge or Current Charge


@<TRIPOS>ATOM
      1 O6A         29.2360   -15.4430   -26.0430 o          1 X0X      -0.705500
      2 C6          29.8090   -16.0530   -25.1470 c          1 X0X       0.749000
      3 O6B         31.0290   -15.9590   -25.0480 o          1 X0X      -0.705500
      4 C5          29.1590   -17.4290   -24.7690 c6         1 X0X       0.029300
      5 O5          30.1100   -18.5320   -24.6850 os         1 X0X      -0.371000
      6 C1          29.4680   -19.8090   -24.5580 c6         1 X0X       0.402300
      7 O1          30.4970   -20.7850   -24.5550 oh         1 X0X      -0.684000
      8 C2          28.6720   -19.8990   -23.2100 c6         1 X0X       0.119300
      9 O2          29.5460   -19.9180   -22.0630 oh         1 X0X      -0.674000
     10 C3          27.6860   -18.6890   -23.0830 c6         1 X0X       0.082300
     11 O3          27.1540   -18.6310   -21.7370 oh         1 X0X      -0.747000
     12 C4          28.3360   -17.3120   -23.4520 c6         1 X0X       0.134300
     13 O4          29.1290   -16.8680   -22.3460 oh         1 X0X      -0.661000
     14 H5          28.4550   -17.6680   -25.5810 h1         1 X0X       0.011700
     15 H1          28.7980   -19.9720   -25.4140 h2         1 X0X      -0.011300
     16 HO1         30.7970   -20.7520   -23.6180 ho         1 X0X       0.490000
     17 H2          28.0750   -20.8220   -23.2220 h1         1 X0X       0.000700
     18 HO2         28.9880   -19.5180   -21.3540 ho         1 X0X       0.497000
     19 H3          26.8660   -18.8590   -23.7970 h1         1 X0X       0.026700
     20 HO3         26.2700   -19.0730   -21.7530 ho         1 X0X       0.503000
     21 H4          27.5220   -16.5920   -23.6240 h1         1 X0X       0.040700
     22 HO4         28.6330   -17.2220   -21.5700 ho         1 X0X       0.474000
@<TRIPOS>BOND
     1     1     2 1   
     2     2     3 1   
     3     2     4 1   
     4     4     5 1   
     5     4    12 1   
     6     4    14 1   
     7     5     6 1   
     8     6     7 1   
     9     6     8 1   
    10     6    15 1   
    11     7    16 1   
    12     8     9 1   
    13     8    10 1   
    14     8    17 1   
    15     9    18 1   
    16    10    11 1   
    17    10    12 1   
    18    10    19 1   
    19    11    20 1   
    20    12    13 1   
    21    12    21 1   
    22    13    22 1   
@<TRIPOS>SUBSTRUCTURE
     1 X0X         1 TEMP              0 ****  ****    0 ROOT
