@<TRIPOS>MOLECULE
X0X
   22    22     1     0     0
SMALL
abcg2


@<TRIPOS>ATOM
      1 O6A         28.9240   -15.2700   -25.4240 o          1 X0X      -0.705500
      2 C6          29.7610   -16.1500   -25.1470 c          1 X0X       0.749000
      3 O6B         30.9980   -16.0580   -25.1500 o          1 X0X      -0.705500
      4 C5          29.1330   -17.5120   -24.7670 c6         1 X0X       0.029300
      5 O5          30.1320   -18.4930   -24.5830 os         1 X0X      -0.371000
      6 C1          29.6030   -19.7620   -24.3810 c6         1 X0X       0.402300
      7 O1          30.7060   -20.6090   -24.3940 oh         1 X0X      -0.684000
      8 C2          28.8070   -19.8320   -23.0750 c6         1 X0X       0.119300
      9 O2          29.6840   -19.6760   -21.9920 oh         1 X0X      -0.674000
     10 C3          27.7170   -18.7640   -23.1360 c6         1 X0X       0.082300
     11 O3          27.0790   -18.7420   -21.8760 oh         1 X0X      -0.747000
     12 C4          28.2520   -17.3840   -23.5280 c6         1 X0X       0.134300
     13 O4          28.9940   -16.7780   -22.4990 oh         1 X0X      -0.661000
     14 H5          28.4720   -17.8130   -25.5970 h1         1 X0X       0.011700
     15 H1          28.8990   -20.0130   -25.1990 h2         1 X0X      -0.011300
     16 HO1         30.4010   -21.5170   -24.3030 ho         1 X0X       0.490000
     17 H2          28.3100   -20.8160   -23.0400 h1         1 X0X       0.000700
     18 HO2         29.1580   -19.6070   -21.1890 ho         1 X0X       0.497000
     19 H3          27.0160   -19.0700   -23.9260 h1         1 X0X       0.026700
     20 HO3         26.2630   -18.2340   -21.9450 ho         1 X0X       0.503000
     21 H4          27.3910   -16.7590   -23.8110 h1         1 X0X       0.040700
     22 HO4         28.5350   -16.9470   -21.6690 ho         1 X0X       0.474000
@<TRIPOS>BOND
     1     1     2 1   
     2     2     3 1   
     3     2     4 1   
     4     4     5 1   
     5     4    12 1   
     6     4    14 1   
     7     5     6 1   
     8     6     7 1   
     9     6     8 1   
    10     6    15 1   
    11     7    16 1   
    12     8     9 1   
    13     8    10 1   
    14     8    17 1   
    15     9    18 1   
    16    10    11 1   
    17    10    12 1   
    18    10    19 1   
    19    11    20 1   
    20    12    13 1   
    21    12    21 1   
    22    13    22 1   
@<TRIPOS>SUBSTRUCTURE
     1 X0X         1 TEMP              0 ****  ****    0 ROOT
