@<TRIPOS>MOLECULE
X0Y
   22    23     1     0     0
SMALL
bcc


@<TRIPOS>ATOM
      1 C01         60.7740     1.4250    -3.2120 c          1 X0Y       0.768100
      2 C02         62.1920     1.2220    -3.2810 cc         1 X0Y      -0.279600
      3 C03         63.1220     1.5260    -4.2580 cd         1 X0Y      -0.057300
      4 C05         64.2110     0.5340    -2.5620 cd         1 X0Y      -0.223300
      5 C06         62.8840     0.6010    -2.2220 cc         1 X0Y       0.034600
      6 C08         60.8740     0.3540    -0.9620 c          1 X0Y       0.842500
      7 N04         64.3130     1.1070    -3.8060 na         1 X0Y      -0.136100
      8 N07         62.2220     0.1800    -1.0910 n          1 X0Y      -0.348000
      9 N09         60.2020     0.9690    -2.0260 n          1 X0Y      -0.513400
     10 O11         60.2710    -0.0070     0.0330 o          1 X0Y      -0.644500
     11 O13         60.0920     1.9410    -4.0780 o          1 X0Y      -0.610500
     12 H031        63.0070     2.0040    -5.2160 h4         1 X0Y       0.186000
     13 H051        65.0700     0.1390    -2.0470 h4         1 X0Y       0.178000
     14 H102        58.4290     0.7850    -0.9430 h1         1 X0Y       0.055033
     15 H101        58.5020     2.2050    -1.9860 h1         1 X0Y       0.055033
     16 H103        58.2390     0.6030    -2.6880 h1         1 X0Y       0.055033
     17 H121        62.3540    -0.7360     0.7800 h1         1 X0Y       0.051700
     18 H122        63.4870    -1.3480    -0.4320 h1         1 X0Y       0.051700
     19 H123        63.7620     0.2310     0.3230 h1         1 X0Y       0.051700
     20 H1          65.1790     1.2050    -4.3120 hn         1 X0Y       0.303700
     21 C10         58.7610     1.1510    -1.9050 c3         1 X0Y       0.084300
     22 C12         62.9970    -0.4540    -0.0450 c3         1 X0Y       0.094300
@<TRIPOS>BOND
     1     1     2 1   
     2     1     9 1   
     3     1    11 2   
     4     2     3 2   
     5     2     5 1   
     6     3     7 1   
     7     3    12 1   
     8     4     5 2   
     9     4     7 1   
    10     4    13 1   
    11     5     8 1   
    12     6     8 1   
    13     6     9 1   
    14     6    10 2   
    15     7    20 1   
    16     8    22 1   
    17     9    21 1   
    18    14    21 1   
    19    15    21 1   
    20    16    21 1   
    21    17    22 1   
    22    18    22 1   
    23    19    22 1   
@<TRIPOS>SUBSTRUCTURE
     1 X0Y         1 TEMP              0 ****  ****    0 ROOT
