@<TRIPOS>MOLECULE
X0Y
   22    23     1     0     0
SMALL
No Charge or Current Charge


@<TRIPOS>ATOM
      1 C01         60.7890     1.4770    -3.2010 c          1 X0Y       0.625600
      2 C02         62.2430     1.2800    -3.2300 cc         1 X0Y      -0.279600
      3 C03         63.1150     1.6800    -4.2090 cd         1 X0Y      -0.090000
      4 C05         64.2840     0.6040    -2.5420 cd         1 X0Y      -0.256000
      5 C06         62.9560     0.6330    -2.2290 cc         1 X0Y       0.034600
      6 C08         60.8630     0.2760    -1.0280 c          1 X0Y       0.633000
      7 N04         64.3870     1.2600    -3.7820 na         1 X0Y      -0.085000
      8 N07         62.2690     0.1360    -1.1340 n          1 X0Y      -0.281000
      9 N09         60.1710     0.9530    -2.0550 n          1 X0Y      -0.379400
     10 O11         60.2590    -0.1850    -0.0660 o          1 X0Y      -0.569000
     11 O13         60.1780     2.0430    -4.0980 o          1 X0Y      -0.535000
     12 H031        62.9440     2.2090    -5.1420 h4         1 X0Y       0.168000
     13 H051        65.1370     0.1890    -2.0170 h4         1 X0Y       0.160000
     14 H102        58.4240     1.3160    -0.8820 h1         1 X0Y       0.055033
     15 H101        58.3140     1.9170    -2.5430 h1         1 X0Y       0.055033
     16 H103        58.2080     0.1630    -2.2300 h1         1 X0Y       0.055033
     17 H121        62.7140    -0.1250     0.9250 h1         1 X0Y       0.051700
     18 H122        62.6950    -1.6290    -0.0420 h1         1 X0Y       0.051700
     19 H123        64.0670    -0.4960    -0.1670 h1         1 X0Y       0.051700
     20 H1          65.2500     1.4100    -4.2980 hn         1 X0Y       0.354000
     21 C10         58.6960     1.0960    -1.9230 c3         1 X0Y       0.084300
     22 C12         62.9810    -0.5700    -0.0420 c3         1 X0Y       0.094300
@<TRIPOS>BOND
     1     1     2 1   
     2     1     9 1   
     3     1    11 2   
     4     2     3 2   
     5     2     5 1   
     6     3     7 1   
     7     3    12 1   
     8     4     5 2   
     9     4     7 1   
    10     4    13 1   
    11     5     8 1   
    12     6     8 1   
    13     6     9 1   
    14     6    10 2   
    15     7    20 1   
    16     8    22 1   
    17     9    21 1   
    18    14    21 1   
    19    15    21 1   
    20    16    21 1   
    21    17    22 1   
    22    18    22 1   
    23    19    22 1   
@<TRIPOS>SUBSTRUCTURE
     1 X0Y         1 TEMP              0 ****  ****    0 ROOT
