@<TRIPOS>MOLECULE
X10
   49    51     1     0     0
SMALL
No Charge or Current Charge


@<TRIPOS>ATOM
      1 C10         16.3530   117.0970   133.1500 ca         1 X10      -0.173000
      2 C13         13.5880   119.8820   128.9430 c          1 X10       0.573100
      3 C17         14.2840   119.9030   131.4050 ca         1 X10      -0.108300
      4 C20         13.4780   120.0190   134.1360 cp         1 X10      -0.035000
      5 C21         13.0790   120.0500   135.5780 cp         1 X10       0.009000
      6 C22         11.7310   119.8520   135.9710 ca         1 X10      -0.135500
      7 C02         16.8300   118.3510   130.1590 c          1 X10       0.567100
      8 C03         17.2910   116.8610   130.2410 c3         1 X10       0.136800
      9 C05         15.7640   116.2040   132.2350 ca         1 X10       0.290000
     10 C06         14.5780   115.5400   132.5870 ca         1 X10      -0.173000
     11 C07         13.9780   115.7670   133.8390 ca         1 X10      -0.072000
     12 C08         14.5690   116.6620   134.7460 ca         1 X10      -0.157000
     13 C09         15.7570   117.3280   134.4020 ca         1 X10      -0.072000
     14 C12         14.7650   119.7890   129.9590 c3         1 X10       0.102000
     15 C18         13.2560   119.0660   131.8830 ca         1 X10      -0.084500
     16 C19         12.8560   119.1290   133.2270 ca         1 X10      -0.092500
     17 C23         11.3610   119.8710   137.3260 ca         1 X10       0.158000
     18 C25         12.3280   120.0850   138.3220 ca         1 X10       0.092000
     19 C27         13.6690   120.2800   137.9530 ca         1 X10       0.158000
     20 C29         14.0410   120.2640   136.5990 ca         1 X10      -0.135500
     21 C30         14.5080   120.8560   133.6400 ca         1 X10      -0.092500
     22 C31         14.9060   120.8000   132.2930 ca         1 X10      -0.084500
     23 F24         10.0640   119.6830   137.6630 f          1 X10      -0.157000
     24 F26         11.9700   120.1010   139.6290 f          1 X10      -0.142000
     25 F28         14.6140   120.4820   138.9000 f          1 X10      -0.157000
     26 N04         16.3290   115.9660   130.9780 nu         1 X10      -0.965200
     27 N11         15.5100   118.5260   129.8080 ns         1 X10      -0.495900
     28 O01         17.5650   119.2960   130.4210 o          1 X10      -0.597100
     29 O15         11.6760   121.2200   128.1710 oh         1 X10      -0.437100
     30 O16         13.2490   118.9650   128.2000 o          1 X10      -0.623100
     31 H1          17.2740   117.6140   132.9000 ha         1 X10       0.117500
     32 H2          10.9620   119.6960   135.2200 ha         1 X10       0.143000
     33 H3          18.2730   116.8550   130.7340 h1         1 X10       0.083700
     34 H4          17.4340   116.5070   129.2110 h1         1 X10       0.083700
     35 H5          14.1140   114.8500   131.8880 ha         1 X10       0.117500
     36 H6          13.0570   115.2520   134.1030 ha         1 X10       0.114000
     37 H7          14.1040   116.8430   135.7130 ha         1 X10       0.115000
     38 H8          16.2130   118.0240   135.1030 ha         1 X10       0.114000
     39 H9          15.4370   120.6270   129.7290 h1         1 X10       0.090700
     40 H10         12.7790   118.3480   131.2200 ha         1 X10       0.123500
     41 H11         12.0780   118.4540   133.5730 ha         1 X10       0.121000
     42 H12         15.0880   120.4020   136.3420 ha         1 X10       0.143000
     43 H13         15.0060   121.5580   134.3040 ha         1 X10       0.121000
     44 H14         15.7120   121.4430   131.9470 ha         1 X10       0.123500
     45 H15         15.8990   115.2080   130.4420 hn         1 X10       0.474000
     46 H16         14.9830   117.6780   129.6330 hn         1 X10       0.337500
     47 H17         13.0540   121.7720   129.6750 hn         1 X10       0.365500
     48 H18         11.4890   120.2860   127.9020 ho         1 X10       0.477000
     49 N14         12.8960   121.0860   128.9370 ns         1 X10      -0.361400
@<TRIPOS>BOND
     1     1     9 ar  
     2     1    13 ar  
     3     1    31 1   
     4     2    14 1   
     5     2    30 2   
     6     2    49 1   
     7     3    14 1   
     8     3    15 ar  
     9     3    22 ar  
    10     4     5 1   
    11     4    16 ar  
    12     4    21 ar  
    13     5     6 ar  
    14     5    20 ar  
    15     6    17 ar  
    16     6    32 1   
    17     7     8 1   
    18     7    27 1   
    19     7    28 2   
    20     8    26 1   
    21     8    33 1   
    22     8    34 1   
    23     9    10 ar  
    24     9    26 1   
    25    10    11 ar  
    26    10    35 1   
    27    11    12 ar  
    28    11    36 1   
    29    12    13 ar  
    30    12    37 1   
    31    13    38 1   
    32    14    27 1   
    33    14    39 1   
    34    15    16 ar  
    35    15    40 1   
    36    16    41 1   
    37    17    18 ar  
    38    17    23 1   
    39    18    19 ar  
    40    18    24 1   
    41    19    20 ar  
    42    19    25 1   
    43    20    42 1   
    44    21    22 ar  
    45    21    43 1   
    46    22    44 1   
    47    26    45 1   
    48    27    46 1   
    49    29    48 1   
    50    29    49 1   
    51    47    49 1   
@<TRIPOS>SUBSTRUCTURE
     1 X10         1 TEMP              0 ****  ****    0 ROOT
