@<TRIPOS>MOLECULE
X10
   49    51     1     0     0
SMALL
abcg2


@<TRIPOS>ATOM
      1 C10         16.1650   116.1970   132.7800 ca         1 X10      -0.173000
      2 C13         13.5930   119.7600   129.4740 c          1 X10       0.573100
      3 C17         14.3930   119.9800   131.8180 ca         1 X10      -0.108300
      4 C20         13.5530   120.3980   134.4690 cp         1 X10      -0.035000
      5 C21         13.1140   120.6120   135.8650 cp         1 X10       0.009000
      6 C22         12.0310   119.8920   136.3840 ca         1 X10      -0.135500
      7 C02         16.8340   118.3640   130.4230 c          1 X10       0.567100
      8 C03         17.3750   116.9410   130.2280 c3         1 X10       0.136800
      9 C05         15.7000   115.7020   131.5540 ca         1 X10       0.290000
     10 C06         14.4770   115.0140   131.5300 ca         1 X10      -0.173000
     11 C07         13.7450   114.8340   132.6940 ca         1 X10      -0.072000
     12 C08         14.2090   115.3300   133.9110 ca         1 X10      -0.157000
     13 C09         15.4220   116.0070   133.9390 ca         1 X10      -0.072000
     14 C12         14.8270   119.7750   130.3730 c3         1 X10       0.102000
     15 C18         13.8760   118.9270   132.5690 ca         1 X10      -0.084500
     16 C19         13.4640   119.1340   133.8770 ca         1 X10      -0.092500
     17 C23         11.6320   120.0960   137.6890 ca         1 X10       0.158000
     18 C25         12.2810   121.0040   138.5120 ca         1 X10       0.092000
     19 C27         13.3500   121.7150   137.9890 ca         1 X10       0.158000
     20 C29         13.7730   121.5320   136.6880 ca         1 X10      -0.135500
     21 C30         14.0730   121.4500   133.7080 ca         1 X10      -0.092500
     22 C31         14.4870   121.2420   132.3990 ca         1 X10      -0.084500
     23 F24         10.5840   119.4190   138.1920 f          1 X10      -0.157000
     24 F26         11.8860   121.1890   139.7800 f          1 X10      -0.142000
     25 F28         13.9810   122.5920   138.7920 f          1 X10      -0.157000
     26 N04         16.4160   115.8740   130.3760 nu         1 X10      -0.965200
     27 N11         15.5270   118.5280   130.1550 ns         1 X10      -0.495900
     28 O01         17.5750   119.2790   130.7740 o          1 X10      -0.597100
     29 O15         12.0570   121.0320   128.2410 oh         1 X10      -0.437100
     30 O16         12.9350   118.7390   129.2550 o          1 X10      -0.623100
     31 H1          17.0970   116.7430   132.8320 ha         1 X10       0.117500
     32 H2          11.4790   119.1890   135.7780 ha         1 X10       0.143000
     33 H3          18.2070   116.8290   130.9240 h1         1 X10       0.083700
     34 H4          17.7950   116.8880   129.2220 h1         1 X10       0.083700
     35 H5          14.1010   114.6390   130.5850 ha         1 X10       0.117500
     36 H6          12.7980   114.3100   132.6470 ha         1 X10       0.114000
     37 H7          13.6310   115.1970   134.8160 ha         1 X10       0.115000
     38 H8          15.7950   116.4110   134.8730 ha         1 X10       0.114000
     39 H9          15.4790   120.5990   130.0830 h1         1 X10       0.090700
     40 H10         13.8150   117.9330   132.1480 ha         1 X10       0.123500
     41 H11         13.0970   118.2930   134.4490 ha         1 X10       0.121000
     42 H12         14.6270   122.0940   136.3370 ha         1 X10       0.143000
     43 H13         14.1440   122.4420   134.1340 ha         1 X10       0.121000
     44 H14         14.8860   122.0690   131.8250 ha         1 X10       0.123500
     45 H15         15.9340   115.5980   129.5350 hn         1 X10       0.474000
     46 H16         14.9650   117.7270   129.9110 hn         1 X10       0.337500
     47 H17         13.6560   121.8290   129.1720 hn         1 X10       0.365500
     48 H18         11.7080   120.1190   128.2810 ho         1 X10       0.477000
     49 N14         13.2480   120.9340   128.9490 ns         1 X10      -0.361400
@<TRIPOS>BOND
     1     1     9 ar  
     2     1    13 ar  
     3     1    31 1   
     4     2    14 1   
     5     2    30 2   
     6     2    49 1   
     7     3    14 1   
     8     3    15 ar  
     9     3    22 ar  
    10     4     5 1   
    11     4    16 ar  
    12     4    21 ar  
    13     5     6 ar  
    14     5    20 ar  
    15     6    17 ar  
    16     6    32 1   
    17     7     8 1   
    18     7    27 1   
    19     7    28 2   
    20     8    26 1   
    21     8    33 1   
    22     8    34 1   
    23     9    10 ar  
    24     9    26 1   
    25    10    11 ar  
    26    10    35 1   
    27    11    12 ar  
    28    11    36 1   
    29    12    13 ar  
    30    12    37 1   
    31    13    38 1   
    32    14    27 1   
    33    14    39 1   
    34    15    16 ar  
    35    15    40 1   
    36    16    41 1   
    37    17    18 ar  
    38    17    23 1   
    39    18    19 ar  
    40    18    24 1   
    41    19    20 ar  
    42    19    25 1   
    43    20    42 1   
    44    21    22 ar  
    45    21    43 1   
    46    22    44 1   
    47    26    45 1   
    48    27    46 1   
    49    29    48 1   
    50    29    49 1   
    51    47    49 1   
@<TRIPOS>SUBSTRUCTURE
     1 X10         1 TEMP              0 ****  ****    0 ROOT
