@<TRIPOS>MOLECULE
X11
   24    25     1     0     0
SMALL
No Charge or Current Charge


@<TRIPOS>ATOM
      1 N1          -1.0280    -1.2620     0.1470 nb         1 X11      -0.359500
      2 C2          -2.3570    -1.1330     0.1550 ca         1 X11       0.456900
      3 N3          -3.0460     0.0070     0.1010 nb         1 X11      -0.367000
      4 C4          -2.2650     1.0850     0.0380 ca         1 X11       0.456900
      5 N5          -0.9280     1.1030     0.0240 nb         1 X11      -0.359500
      6 C6          -0.3290    -0.1080     0.0820 cp         1 X11       0.316500
      7 N7          -3.0740    -2.2700     0.2170 nv         1 X11      -1.067900
      8 N8          -2.8860     2.2770    -0.0220 nv         1 X11      -1.067900
      9 C9           1.1840    -0.1920     0.0640 cp         1 X11      -0.285500
     10 C10          2.0440     0.9420     0.1860 ca         1 X11       0.218100
     11 C11          3.4400     0.8020     0.1670 ca         1 X11      -0.186000
     12 C12          4.0320    -0.4590     0.0260 ca         1 X11      -0.042000
     13 C13          3.2170    -1.5900    -0.0950 ca         1 X11      -0.182000
     14 C14          1.8190    -1.4620    -0.0760 ca         1 X11      -0.015000
     15 O15          1.5530     2.1990     0.3350 oh         1 X11      -0.560100
     16 HN7         -2.5950    -3.1410     0.0040 hn         1 X11       0.508500
     17 HN7A        -4.0600    -2.2250    -0.0290 hn         1 X11       0.508500
     18 HN8         -3.8780     2.2770    -0.2450 hn         1 X11       0.508500
     19 HN8A        -2.3540     3.0810    -0.3460 hn         1 X11       0.508500
     20 H11          4.0700     1.6830     0.2640 ha         1 X11       0.127000
     21 H12          5.1160    -0.5590     0.0120 ha         1 X11       0.112000
     22 H13          3.6680    -2.5740    -0.2050 ha         1 X11       0.116000
     23 H14          1.2280    -2.3700    -0.1770 ha         1 X11       0.131000
     24 HO15         0.5720     2.1150     0.2870 ho         1 X11       0.524000
@<TRIPOS>BOND
     1     1     2 ar  
     2     1     6 ar  
     3     2     3 ar  
     4     2     7 1   
     5     3     4 ar  
     6     4     5 ar  
     7     4     8 1   
     8     5     6 ar  
     9     6     9 1   
    10     7    16 1   
    11     7    17 1   
    12     8    18 1   
    13     8    19 1   
    14     9    10 ar  
    15     9    14 ar  
    16    10    11 ar  
    17    10    15 1   
    18    11    12 ar  
    19    11    20 1   
    20    12    13 ar  
    21    12    21 1   
    22    13    14 ar  
    23    13    22 1   
    24    14    23 1   
    25    15    24 1   
@<TRIPOS>SUBSTRUCTURE
     1 X11         1 TEMP              0 ****  ****    0 ROOT
