@<TRIPOS>MOLECULE
X11
   24    25     1     0     0
SMALL
abcg2


@<TRIPOS>ATOM
      1 N1          -0.9780    -1.2910     0.0150 nb         1 X11      -0.359500
      2 C2          -2.3130    -1.1540     0.0070 ca         1 X11       0.456900
      3 N3          -2.9680     0.0070     0.0180 nb         1 X11      -0.367000
      4 C4          -2.1950     1.0860     0.0380 ca         1 X11       0.456900
      5 N5          -0.8510     1.0540     0.0470 nb         1 X11      -0.359500
      6 C6          -0.2980    -0.1590     0.0350 cp         1 X11       0.316500
      7 N7          -3.0370    -2.2720    -0.0080 nv         1 X11      -1.067900
      8 N8          -2.7790     2.2830     0.0560 nv         1 X11      -1.067900
      9 C9           1.1710    -0.2250     0.0470 cp         1 X11      -0.285500
     10 C10          1.9670     0.9410     0.0670 ca         1 X11       0.218100
     11 C11          3.3600     0.8160     0.0780 ca         1 X11      -0.186000
     12 C12          3.9560    -0.4290     0.0700 ca         1 X11      -0.042000
     13 C13          3.1800    -1.5880     0.0500 ca         1 X11      -0.182000
     14 C14          1.8060    -1.4730     0.0380 ca         1 X11      -0.015000
     15 O15          1.4580     2.1720     0.0760 oh         1 X11      -0.560100
     16 HN7         -2.5890    -3.1700    -0.0490 hn         1 X11       0.508500
     17 HN7A        -4.0400    -2.2280    -0.0410 hn         1 X11       0.508500
     18 HN8         -3.7800     2.3580     0.0220 hn         1 X11       0.508500
     19 HN8A        -2.2310     3.1240     0.0430 hn         1 X11       0.508500
     20 H11          3.9650     1.7140     0.0940 ha         1 X11       0.127000
     21 H12          5.0360    -0.5000     0.0790 ha         1 X11       0.112000
     22 H13          3.6470    -2.5630     0.0440 ha         1 X11       0.116000
     23 H14          1.1880    -2.3600     0.0230 ha         1 X11       0.131000
     24 HO15         0.4680     2.0830     0.0660 ho         1 X11       0.524000
@<TRIPOS>BOND
     1     1     2 ar  
     2     1     6 ar  
     3     2     3 ar  
     4     2     7 1   
     5     3     4 ar  
     6     4     5 ar  
     7     4     8 1   
     8     5     6 ar  
     9     6     9 1   
    10     7    16 1   
    11     7    17 1   
    12     8    18 1   
    13     8    19 1   
    14     9    10 ar  
    15     9    14 ar  
    16    10    11 ar  
    17    10    15 1   
    18    11    12 ar  
    19    11    20 1   
    20    12    13 ar  
    21    12    21 1   
    22    13    14 ar  
    23    13    22 1   
    24    14    23 1   
    25    15    24 1   
@<TRIPOS>SUBSTRUCTURE
     1 X11         1 TEMP              0 ****  ****    0 ROOT
