@<TRIPOS>MOLECULE
X13
   60    59     1     0     0
SMALL
abcg2


@<TRIPOS>ATOM
      1 C4           6.1720     1.2940    -0.3140 c3         1 X13       0.156600
      2 C5           4.9310     0.7050     0.3330 c3         1 X13      -0.085400
      3 C6           3.6580     1.1380    -0.3860 c3         1 X13      -0.071400
      4 C7           2.4150     0.4970     0.2190 c3         1 X13      -0.075400
      5 C8           1.1130     0.9690    -0.4150 c3         1 X13      -0.073400
      6 C9          -0.1140     0.3080     0.2020 c3         1 X13      -0.074400
      7 C10         -1.4320     0.7960    -0.3840 c3         1 X13      -0.073400
      8 C11         -2.6470     0.1230     0.2430 c3         1 X13      -0.074400
      9 C12         -3.9710     0.6120    -0.3290 c3         1 X13      -0.073400
     10 C13         -5.1820    -0.0710     0.2940 c3         1 X13      -0.073400
     11 C14         -6.4980     0.4080    -0.3030 c3         1 X13      -0.075400
     12 C15         -7.7120    -0.2920     0.3020 c3         1 X13      -0.099400
     13 C16         -8.9660     0.1780    -0.4080 c3         1 X13       0.098600
     14 N1         -10.2640    -0.3930     0.1010 n4         1 X13      -0.496000
     15 C19        -10.2500    -1.8800     0.0520 c3         1 X13       0.075567
     16 S18          7.7060     0.9610     0.6150 ss         1 X13      -0.490900
     17 S19          8.2560    -0.9200    -0.0940 s6         1 X13       0.996900
     18 O1           9.2420    -1.3860     0.8700 o          1 X13      -0.445000
     19 O2           7.0750    -1.7280    -0.3640 o          1 X13      -0.445000
     20 C20          9.0700    -0.5920    -1.6400 c3         1 X13      -0.311100
     21 C17        -10.5280     0.0580     1.4950 c3         1 X13       0.075567
     22 C18        -11.3570     0.1080    -0.7790 c3         1 X13       0.075567
     23 H41C         6.2940     0.9660    -1.3480 h1         1 X13       0.070700
     24 H42C         6.1230     2.3850    -0.3390 h1         1 X13       0.070700
     25 H51C         5.0020    -0.3840     0.3360 hc         1 X13       0.066700
     26 H52C         4.8840     1.0200     1.3790 hc         1 X13       0.066700
     27 H61C         3.5680     2.2280    -0.3430 hc         1 X13       0.039200
     28 H62C         3.7250     0.8780    -1.4480 hc         1 X13       0.039200
     29 H71C         2.4900    -0.5910     0.1270 hc         1 X13       0.042700
     30 H72C         2.3880     0.7080     1.2940 hc         1 X13       0.042700
     31 H81C         1.0320     2.0570    -0.3100 hc         1 X13       0.038700
     32 H82C         1.1340     0.7690    -1.4920 hc         1 X13       0.038700
     33 H91C        -0.0400    -0.7780     0.0760 hc         1 X13       0.039700
     34 H92C        -0.1120     0.4850     1.2840 hc         1 X13       0.039700
     35 H101        -1.5090     1.8810    -0.2520 hc         1 X13       0.039700
     36 H102        -1.4380     0.6230    -1.4660 hc         1 X13       0.039700
     37 H111        -2.5710    -0.9620     0.1060 hc         1 X13       0.041200
     38 H112        -2.6340     0.2900     1.3260 hc         1 X13       0.041200
     39 H121        -4.0510     1.6950    -0.1870 hc         1 X13       0.042200
     40 H122        -3.9810     0.4470    -1.4120 hc         1 X13       0.042200
     41 H131        -5.0980    -1.1550     0.1600 hc         1 X13       0.045200
     42 H132        -5.1850     0.1030     1.3750 hc         1 X13       0.045200
     43 H141        -6.5930     1.4900    -0.1630 hc         1 X13       0.050700
     44 H142        -6.4850     0.2400    -1.3850 hc         1 X13       0.050700
     45 H151        -7.5880    -1.3720     0.1930 hc         1 X13       0.063700
     46 H152        -7.7580    -0.0780     1.3720 hc         1 X13       0.063700
     47 H161        -9.0660     1.2620    -0.3320 hx         1 X13       0.092700
     48 H162        -8.9170    -0.0780    -1.4670 hx         1 X13       0.092700
     49 H171       -10.5380     1.1440     1.5220 hx         1 X13       0.097256
     50 H172       -11.4940    -0.3260     1.8120 hx         1 X13       0.097256
     51 H173        -9.7560    -0.3210     2.1570 hx         1 X13       0.097256
     52 H181       -11.1810    -0.2340    -1.7960 hx         1 X13       0.097256
     53 H182       -12.3080    -0.2770    -0.4220 hx         1 X13       0.097256
     54 H183       -11.3650     1.1950    -0.7520 hx         1 X13       0.097256
     55 H191        -9.5290    -2.2660     0.7650 hx         1 X13       0.097256
     56 H192       -11.2400    -2.2480     0.3100 hx         1 X13       0.097256
     57 H193        -9.9890    -2.2040    -0.9520 hx         1 X13       0.097256
     58 H201         9.9250     0.0530    -1.4600 h1         1 X13       0.112700
     59 H202         9.3940    -1.5510    -2.0430 h1         1 X13       0.112700
     60 H203         8.3720    -0.1180    -2.3260 h1         1 X13       0.112700
@<TRIPOS>BOND
     1     1     2 1   
     2     1    16 1   
     3     1    23 1   
     4     1    24 1   
     5     2     3 1   
     6     2    25 1   
     7     2    26 1   
     8     3     4 1   
     9     3    27 1   
    10     3    28 1   
    11     4     5 1   
    12     4    29 1   
    13     4    30 1   
    14     5     6 1   
    15     5    31 1   
    16     5    32 1   
    17     6     7 1   
    18     6    33 1   
    19     6    34 1   
    20     7     8 1   
    21     7    35 1   
    22     7    36 1   
    23     8     9 1   
    24     8    37 1   
    25     8    38 1   
    26     9    10 1   
    27     9    39 1   
    28     9    40 1   
    29    10    11 1   
    30    10    41 1   
    31    10    42 1   
    32    11    12 1   
    33    11    43 1   
    34    11    44 1   
    35    12    13 1   
    36    12    45 1   
    37    12    46 1   
    38    13    14 1   
    39    13    47 1   
    40    13    48 1   
    41    14    15 1   
    42    14    21 1   
    43    14    22 1   
    44    15    55 1   
    45    15    56 1   
    46    15    57 1   
    47    16    17 1   
    48    17    18 2   
    49    17    19 2   
    50    17    20 1   
    51    20    58 1   
    52    20    59 1   
    53    20    60 1   
    54    21    49 1   
    55    21    50 1   
    56    21    51 1   
    57    22    52 1   
    58    22    53 1   
    59    22    54 1   
@<TRIPOS>SUBSTRUCTURE
     1 X13         1 TEMP              0 ****  ****    0 ROOT
