@<TRIPOS>MOLECULE
X13
   60    59     1     0     0
SMALL
No Charge or Current Charge


@<TRIPOS>ATOM
      1 C4           6.3100     1.3360    -0.2400 c3         1 X13       0.156600
      2 C5           5.0560     0.7380     0.4350 c3         1 X13      -0.085400
      3 C6           3.7440     1.1330    -0.2780 c3         1 X13      -0.071400
      4 C7           2.4870     0.5390     0.3960 c3         1 X13      -0.075400
      5 C8           1.1750     0.9340    -0.3170 c3         1 X13      -0.073400
      6 C9          -0.0810     0.3400     0.3580 c3         1 X13      -0.074400
      7 C10         -1.3930     0.7340    -0.3560 c3         1 X13      -0.073400
      8 C11         -2.6490     0.1400     0.3190 c3         1 X13      -0.074400
      9 C12         -3.9610     0.5330    -0.3950 c3         1 X13      -0.073400
     10 C13         -5.2170    -0.0610     0.2800 c3         1 X13      -0.073400
     11 C14         -6.5290     0.3320    -0.4340 c3         1 X13      -0.075400
     12 C15         -7.7830    -0.2630     0.2400 c3         1 X13      -0.099400
     13 C16         -9.0840     0.1400    -0.4850 c3         1 X13       0.098600
     14 N1         -10.4110    -0.3880     0.0850 n4         1 X13      -0.496000
     15 C19        -10.4310    -1.9240     0.0670 c3         1 X13       0.075567
     16 S18          7.8520     0.8340     0.6580 ss         1 X13      -0.490900
     17 S19          8.2810    -1.0190    -0.4180 s6         1 X13       0.996900
     18 O1           9.0730    -1.8610     0.4840 o          1 X13      -0.445000
     19 O2           7.0230    -1.5040    -0.9960 o          1 X13      -0.445000
     20 C20          9.3400    -0.4820    -1.7570 c3         1 X13      -0.311100
     21 C17        -10.6140     0.1120     1.5240 c3         1 X13       0.075567
     22 C18        -11.5630     0.1330    -0.7860 c3         1 X13       0.075567
     23 H41C         6.3660     1.0350    -1.2940 h1         1 X13       0.070700
     24 H42C         6.2360     2.4310    -0.2090 h1         1 X13       0.070700
     25 H51C         5.1350    -0.3550     0.4610 hc         1 X13       0.066700
     26 H52C         5.0180     1.0790     1.4770 hc         1 X13       0.066700
     27 H61C         3.6590     2.2270    -0.2990 hc         1 X13       0.039200
     28 H62C         3.7850     0.7950    -1.3220 hc         1 X13       0.039200
     29 H71C         2.5720    -0.5540     0.4160 hc         1 X13       0.042700
     30 H72C         2.4450     0.8770     1.4400 hc         1 X13       0.042700
     31 H81C         1.0910     2.0270    -0.3370 hc         1 X13       0.038700
     32 H82C         1.2170     0.5960    -1.3600 hc         1 X13       0.038700
     33 H91C         0.0040    -0.7540     0.3780 hc         1 X13       0.039700
     34 H92C        -0.1230     0.6770     1.4010 hc         1 X13       0.039700
     35 H101        -1.4780     1.8280    -0.3750 hc         1 X13       0.039700
     36 H102        -1.3510     0.3970    -1.3990 hc         1 X13       0.039700
     37 H111        -2.5640    -0.9540     0.3390 hc         1 X13       0.041200
     38 H112        -2.6910     0.4770     1.3620 hc         1 X13       0.041200
     39 H121        -4.0460     1.6270    -0.4140 hc         1 X13       0.042200
     40 H122        -3.9190     0.1960    -1.4380 hc         1 X13       0.042200
     41 H131        -5.1310    -1.1550     0.3000 hc         1 X13       0.045200
     42 H132        -5.2590     0.2760     1.3230 hc         1 X13       0.045200
     43 H141        -6.6150     1.4260    -0.4540 hc         1 X13       0.050700
     44 H142        -6.4870    -0.0050    -1.4780 hc         1 X13       0.050700
     45 H151        -7.6960    -1.3550     0.2580 hc         1 X13       0.063700
     46 H152        -7.8250     0.0770     1.2820 hc         1 X13       0.063700
     47 H161        -9.1470     1.2300    -0.4990 hx         1 X13       0.092700
     48 H162        -9.0190    -0.2000    -1.5220 hx         1 X13       0.092700
     49 H171       -10.5900     1.2040     1.5340 hx         1 X13       0.097256
     50 H172       -11.5800    -0.2370     1.8940 hx         1 X13       0.097256
     51 H173        -9.8170    -0.2790     2.1590 hx         1 X13       0.097256
     52 H181       -11.4300    -0.2230    -1.8100 hx         1 X13       0.097256
     53 H182       -12.5110    -0.2360    -0.3900 hx         1 X13       0.097256
     54 H183       -11.5600     1.2240    -0.7740 hx         1 X13       0.097256
     55 H191        -9.6350    -2.3040     0.7100 hx         1 X13       0.097256
     56 H192       -11.3970    -2.2760     0.4350 hx         1 X13       0.097256
     57 H193       -10.2780    -2.2750    -0.9550 hx         1 X13       0.097256
     58 H201        10.2270    -0.0170    -1.3140 h1         1 X13       0.112700
     59 H202         9.6090    -1.3680    -2.3410 h1         1 X13       0.112700
     60 H203         8.7770     0.2350    -2.3630 h1         1 X13       0.112700
@<TRIPOS>BOND
     1     1     2 1   
     2     1    16 1   
     3     1    23 1   
     4     1    24 1   
     5     2     3 1   
     6     2    25 1   
     7     2    26 1   
     8     3     4 1   
     9     3    27 1   
    10     3    28 1   
    11     4     5 1   
    12     4    29 1   
    13     4    30 1   
    14     5     6 1   
    15     5    31 1   
    16     5    32 1   
    17     6     7 1   
    18     6    33 1   
    19     6    34 1   
    20     7     8 1   
    21     7    35 1   
    22     7    36 1   
    23     8     9 1   
    24     8    37 1   
    25     8    38 1   
    26     9    10 1   
    27     9    39 1   
    28     9    40 1   
    29    10    11 1   
    30    10    41 1   
    31    10    42 1   
    32    11    12 1   
    33    11    43 1   
    34    11    44 1   
    35    12    13 1   
    36    12    45 1   
    37    12    46 1   
    38    13    14 1   
    39    13    47 1   
    40    13    48 1   
    41    14    15 1   
    42    14    21 1   
    43    14    22 1   
    44    15    55 1   
    45    15    56 1   
    46    15    57 1   
    47    16    17 1   
    48    17    18 2   
    49    17    19 2   
    50    17    20 1   
    51    20    58 1   
    52    20    59 1   
    53    20    60 1   
    54    21    49 1   
    55    21    50 1   
    56    21    51 1   
    57    22    52 1   
    58    22    53 1   
    59    22    54 1   
@<TRIPOS>SUBSTRUCTURE
     1 X13         1 TEMP              0 ****  ****    0 ROOT
