@<TRIPOS>MOLECULE
X14
   56    58     1     0     0
SMALL
No Charge or Current Charge


@<TRIPOS>ATOM
      1 N01         -1.0670    -1.9200    -0.0740 na         1 X14       0.002800
      2 N02         -2.0950    -2.8500    -0.1280 nc         1 X14      -0.495800
      3 N03          0.6230     0.5180     0.1040 ns         1 X14      -0.511900
      4 N04          8.2160     0.9230     0.1610 n8         1 X14      -1.001100
      5 C05         -3.1690    -2.0920    -0.0580 cd         1 X14       0.238300
      6 C06         -2.8750    -0.7190     0.0300 cd         1 X14      -0.111300
      7 C07         -1.5060    -0.5910     0.0310 cc         1 X14      -0.233600
      8 C08         -4.5780    -2.6260    -0.0850 c6         1 X14      -0.102700
      9 C09         -5.5840    -1.5730     0.4470 c6         1 X14      -0.074400
     10 C10         -5.3730    -0.1690    -0.2200 c6         1 X14      -0.052700
     11 C11         -3.9350     0.3620     0.1280 c6         1 X14       0.003900
     12 C12         -6.5470     0.8780     0.0620 c3         1 X14      -0.035000
     13 C13         -0.7420     0.6820     0.1350 c          1 X14       0.642700
     14 C14          1.5820     1.6190     0.1930 c3         1 X14       0.134300
     15 C15          3.0130     1.1100     0.1320 ca         1 X14      -0.053300
     16 C16          3.6670     0.9750    -1.1080 ca         1 X14      -0.123000
     17 C17          4.9890     0.5000    -1.1690 ca         1 X14      -0.008000
     18 C18          5.6690     0.1520     0.0170 ca         1 X14      -0.269500
     19 C19          5.0150     0.2830     1.2600 ca         1 X14      -0.008000
     20 C20          3.6940     0.7590     1.3130 ca         1 X14      -0.123000
     21 C21         -6.7530     1.1100     1.5900 c3         1 X14      -0.085600
     22 C22         -6.2040     2.2530    -0.5900 c3         1 X14      -0.085600
     23 C23         -7.8920     0.3490    -0.5660 c3         1 X14      -0.070400
     24 C24         -9.1280     1.2830    -0.5240 c3         1 X14      -0.088100
     25 O25         -1.2480     1.7900     0.2420 o          1 X14      -0.577100
     26 O26          7.6890    -0.8670    -1.4100 o          1 X14      -0.542500
     27 O27          7.6570    -1.2730     1.1270 o          1 X14      -0.542500
     28 S28          7.3580    -0.4540    -0.0490 sy         1 X14       1.124600
     29 HN01        -0.0980    -2.2340    -0.1070 hn         1 X14       0.373000
     30 HN03         0.9830    -0.4200     0.0130 hn         1 X14       0.313500
     31 HN04         7.5450     1.6390    -0.1060 hn         1 X14       0.473500
     32 HN0A         8.8510     0.8760    -0.6330 hn         1 X14       0.473500
     33 H08         -4.8450    -2.9010    -1.1140 hc         1 X14       0.057200
     34 H08A        -4.6540    -3.5450     0.5120 hc         1 X14       0.057200
     35 H09         -6.5940    -1.9610     0.2730 hc         1 X14       0.046200
     36 H09A        -5.4710    -1.4860     1.5360 hc         1 X14       0.046200
     37 H10         -5.3860    -0.3300    -1.3070 hc         1 X14       0.045700
     38 H11         -3.9130     0.7860     1.1390 hc         1 X14       0.061700
     39 H11A        -3.6760     1.1770    -0.5590 hc         1 X14       0.061700
     40 H14          1.4010     2.3190    -0.6340 h1         1 X14       0.070700
     41 H14A         1.4200     2.1610     1.1350 h1         1 X14       0.070700
     42 H16          3.1500     1.2380    -2.0280 ha         1 X14       0.123000
     43 H17          5.4750     0.4020    -2.1390 ha         1 X14       0.139500
     44 H19          5.5260     0.0190     2.1850 ha         1 X14       0.139500
     45 H20          3.1980     0.8540     2.2770 ha         1 X14       0.123000
     46 H21         -5.8270     1.4260     2.0810 hc         1 X14       0.033867
     47 H21A        -7.4940     1.8950     1.7780 hc         1 X14       0.033867
     48 H21B        -7.1050     0.1980     2.0870 hc         1 X14       0.033867
     49 H22         -6.0470     2.1480    -1.6700 hc         1 X14       0.033867
     50 H22A        -7.0010     2.9890    -0.4320 hc         1 X14       0.033867
     51 H22B        -5.3010     2.6940    -0.1530 hc         1 X14       0.033867
     52 H23         -7.7140     0.0780    -1.6150 hc         1 X14       0.036200
     53 H23A        -8.1940    -0.5740    -0.0620 hc         1 X14       0.036200
     54 H24         -9.3650     1.5950     0.4990 hc         1 X14       0.031367
     55 H24A        -8.9810     2.1750    -1.1430 hc         1 X14       0.031367
     56 H24B       -10.0040     0.7550    -0.9190 hc         1 X14       0.031367
@<TRIPOS>BOND
     1     1     2 1   
     2     1     7 1   
     3     1    29 1   
     4     2     5 2   
     5     3    13 1   
     6     3    14 1   
     7     3    30 1   
     8     4    28 1   
     9     4    31 1   
    10     4    32 1   
    11     5     6 1   
    12     5     8 1   
    13     6     7 2   
    14     6    11 1   
    15     7    13 1   
    16     8     9 1   
    17     8    33 1   
    18     8    34 1   
    19     9    10 1   
    20     9    35 1   
    21     9    36 1   
    22    10    11 1   
    23    10    12 1   
    24    10    37 1   
    25    11    38 1   
    26    11    39 1   
    27    12    21 1   
    28    12    22 1   
    29    12    23 1   
    30    13    25 2   
    31    14    15 1   
    32    14    40 1   
    33    14    41 1   
    34    15    16 ar  
    35    15    20 ar  
    36    16    17 ar  
    37    16    42 1   
    38    17    18 ar  
    39    17    43 1   
    40    18    19 ar  
    41    18    28 1   
    42    19    20 ar  
    43    19    44 1   
    44    20    45 1   
    45    21    46 1   
    46    21    47 1   
    47    21    48 1   
    48    22    49 1   
    49    22    50 1   
    50    22    51 1   
    51    23    24 1   
    52    23    52 1   
    53    23    53 1   
    54    24    54 1   
    55    24    55 1   
    56    24    56 1   
    57    26    28 2   
    58    27    28 2   
@<TRIPOS>SUBSTRUCTURE
     1 X14         1 TEMP              0 ****  ****    0 ROOT
