@<TRIPOS>MOLECULE
X14
   56    58     1     0     0
SMALL
abcg2


@<TRIPOS>ATOM
      1 N01         -1.0720    -1.8740    -0.1650 na         1 X14       0.002800
      2 N02         -2.0570    -2.7490    -0.0480 nc         1 X14      -0.495800
      3 N03          0.5500     0.4160    -0.8210 ns         1 X14      -0.511900
      4 N04          7.5290     0.7710     1.5300 n8         1 X14      -1.001100
      5 C05         -3.1550    -2.0210     0.0780 cd         1 X14       0.238300
      6 C06         -2.8670    -0.6470     0.0650 cd         1 X14      -0.111300
      7 C07         -1.4960    -0.5900    -0.0960 cc         1 X14      -0.233600
      8 C08         -4.5370    -2.5600     0.2130 c6         1 X14      -0.102700
      9 C09         -5.4520    -1.4610     0.7540 c6         1 X14      -0.074400
     10 C10         -5.3080    -0.1550    -0.0420 c6         1 X14      -0.052700
     11 C11         -3.9000     0.4250     0.1700 c6         1 X14       0.003900
     12 C12         -6.4420     0.8740     0.2340 c3         1 X14      -0.035000
     13 C13         -0.6300     0.5980    -0.1910 c          1 X14       0.642700
     14 C14          1.5140     1.4730    -1.0150 c3         1 X14       0.134300
     15 C15          2.9140     1.0240    -0.6940 ca         1 X14      -0.053300
     16 C16          3.9570     1.3200    -1.5620 ca         1 X14      -0.123000
     17 C17          5.2590     0.9390    -1.2680 ca         1 X14      -0.008000
     18 C18          5.5070     0.2550    -0.0900 ca         1 X14      -0.269500
     19 C19          4.4780    -0.0580     0.7920 ca         1 X14      -0.008000
     20 C20          3.1870     0.3280     0.4850 ca         1 X14      -0.123000
     21 C21         -6.6150     1.1150     1.7360 c3         1 X14      -0.085600
     22 C22         -6.1080     2.2080    -0.4410 c3         1 X14      -0.085600
     23 C23         -7.7510     0.3180    -0.3640 c3         1 X14      -0.070400
     24 C24         -8.9750     1.2230    -0.2840 c3         1 X14      -0.088100
     25 O25         -0.9910     1.6640     0.2830 o          1 X14      -0.577100
     26 O26          7.9750    -0.0570    -0.8880 o          1 X14      -0.542500
     27 O27          7.1200    -1.5920     0.8900 o          1 X14      -0.542500
     28 S28          7.1530    -0.2630     0.2970 sy         1 X14       1.124600
     29 HN01        -0.1220    -2.2090    -0.1960 hn         1 X14       0.373000
     30 HN03         0.6910    -0.4230    -1.3620 hn         1 X14       0.313500
     31 HN04         7.7130     1.7150     1.2060 hn         1 X14       0.473500
     32 HN0A         8.3170     0.4290     2.0730 hn         1 X14       0.473500
     33 H08         -4.9060    -2.8940    -0.7620 hc         1 X14       0.057200
     34 H08A        -4.5520    -3.4330     0.8690 hc         1 X14       0.057200
     35 H09         -6.4800    -1.8240     0.7350 hc         1 X14       0.046200
     36 H09A        -5.2070    -1.2780     1.8060 hc         1 X14       0.046200
     37 H10         -5.3870    -0.4140    -1.1080 hc         1 X14       0.045700
     38 H11         -3.8330     0.9110     1.1480 hc         1 X14       0.061700
     39 H11A        -3.6940     1.2020    -0.5670 hc         1 X14       0.061700
     40 H14          1.4720     1.8440    -2.0420 h1         1 X14       0.070700
     41 H14A         1.2370     2.3060    -0.3690 h1         1 X14       0.070700
     42 H16          3.7550     1.8510    -2.4840 ha         1 X14       0.123000
     43 H17          6.0570     1.1720    -1.9580 ha         1 X14       0.139500
     44 H19          4.6770    -0.5950     1.7100 ha         1 X14       0.139500
     45 H20          2.3840     0.0820     1.1680 ha         1 X14       0.123000
     46 H21         -5.6760     1.4110     2.2090 hc         1 X14       0.033867
     47 H21A        -7.3350     1.9130     1.9240 hc         1 X14       0.033867
     48 H21B        -6.9780     0.2250     2.2550 hc         1 X14       0.033867
     49 H22         -5.9340     2.0840    -1.5140 hc         1 X14       0.033867
     50 H22A        -6.9210     2.9230    -0.3180 hc         1 X14       0.033867
     51 H22B        -5.2180     2.6710    -0.0120 hc         1 X14       0.033867
     52 H23         -7.5700     0.0640    -1.4140 hc         1 X14       0.036200
     53 H23A        -8.0000    -0.6230     0.1330 hc         1 X14       0.036200
     54 H24         -9.2070     1.5140     0.7420 hc         1 X14       0.031367
     55 H24A        -8.8600     2.1350    -0.8700 hc         1 X14       0.031367
     56 H24B        -9.8510     0.7020    -0.6740 hc         1 X14       0.031367
@<TRIPOS>BOND
     1     1     2 1   
     2     1     7 1   
     3     1    29 1   
     4     2     5 2   
     5     3    13 1   
     6     3    14 1   
     7     3    30 1   
     8     4    28 1   
     9     4    31 1   
    10     4    32 1   
    11     5     6 1   
    12     5     8 1   
    13     6     7 2   
    14     6    11 1   
    15     7    13 1   
    16     8     9 1   
    17     8    33 1   
    18     8    34 1   
    19     9    10 1   
    20     9    35 1   
    21     9    36 1   
    22    10    11 1   
    23    10    12 1   
    24    10    37 1   
    25    11    38 1   
    26    11    39 1   
    27    12    21 1   
    28    12    22 1   
    29    12    23 1   
    30    13    25 2   
    31    14    15 1   
    32    14    40 1   
    33    14    41 1   
    34    15    16 ar  
    35    15    20 ar  
    36    16    17 ar  
    37    16    42 1   
    38    17    18 ar  
    39    17    43 1   
    40    18    19 ar  
    41    18    28 1   
    42    19    20 ar  
    43    19    44 1   
    44    20    45 1   
    45    21    46 1   
    46    21    47 1   
    47    21    48 1   
    48    22    49 1   
    49    22    50 1   
    50    22    51 1   
    51    23    24 1   
    52    23    52 1   
    53    23    53 1   
    54    24    54 1   
    55    24    55 1   
    56    24    56 1   
    57    26    28 2   
    58    27    28 2   
@<TRIPOS>SUBSTRUCTURE
     1 X14         1 TEMP              0 ****  ****    0 ROOT
