@<TRIPOS>MOLECULE
X16
   50    52     1     0     0
SMALL
No Charge or Current Charge


@<TRIPOS>ATOM
      1 C1          -6.4330     3.0850     1.5730 c3         1 X16      -0.134100
      2 C2          -5.1690     2.6800     0.7860 c3         1 X16       0.133300
      3 C3          -4.4030     1.4770     1.4290 c3         1 X16       0.058500
      4 C4          -3.4830     0.7840     0.3580 c          1 X16       0.649100
      5 N5          -3.9390    -0.4190    -0.0950 ns         1 X16      -0.588300
      6 O6          -4.3160     3.8300     0.6760 oh         1 X16      -0.641000
      7 N7          -3.7270     1.8480     2.7330 n8         1 X16      -0.993200
      8 O8          -2.4170     1.2600    -0.0070 o          1 X16      -0.530100
      9 S9          -3.2070    -1.4320    -1.2040 sy         1 X16       1.183300
     10 O10         -4.0930    -2.5970    -1.2930 o          1 X16      -0.527500
     11 O11         -2.9050    -0.6080    -2.3800 o          1 X16      -0.527500
     12 C12         -1.6590    -1.9330    -0.4290 ca         1 X16      -0.292500
     13 C13         -1.6400    -3.0130     0.4750 ca         1 X16      -0.017000
     14 C14         -0.4330    -3.3930     1.0820 ca         1 X16      -0.132000
     15 C15          0.7550    -2.7010     0.7940 ca         1 X16      -0.040000
     16 C16          0.7630    -1.6090    -0.1100 cp         1 X16      -0.058000
     17 C17         -0.4650    -1.2370    -0.7150 ca         1 X16       0.022000
     18 C18          2.0290    -0.8700    -0.4150 cp         1 X16      -0.007000
     19 C19          2.2920    -0.3730    -1.7150 ca         1 X16      -0.117000
     20 C20          3.4780     0.3190    -2.0040 ca         1 X16      -0.066000
     21 C21          4.4380     0.5320    -0.9900 ca         1 X16      -0.184000
     22 C22          4.1980     0.0490     0.3190 ca         1 X16       0.063000
     23 C23          3.0040    -0.6430     0.5880 ca         1 X16      -0.091000
     24 N24          5.1050     0.2530     1.2980 nb         1 X16      -0.221000
     25 C25          6.2300     0.9270     0.9780 ca         1 X16       0.194300
     26 N26          6.5470     1.4170    -0.2350 nb         1 X16      -0.303000
     27 C27          5.6520     1.2190    -1.2090 ca         1 X16       0.417900
     28 N28          6.0260     1.7290    -2.4140 nv         1 X16      -1.079900
     29 C29          7.2420     1.1400     2.0900 c3         1 X16      -0.134400
     30 H1          -6.9600     3.9000     1.0620 hc         1 X16       0.047367
     31 H1A         -7.1250     2.2370     1.6500 hc         1 X16       0.047367
     32 H1B         -6.1880     3.4190     2.5890 hc         1 X16       0.047367
     33 H2          -5.4980     2.3670    -0.2170 h1         1 X16       0.078700
     34 H3          -5.1670     0.7270     1.6830 h1         1 X16       0.076700
     35 HN5         -4.7950    -0.8080     0.2610 hn         1 X16       0.341500
     36 HO6         -4.4240     4.3510     1.5000 ho         1 X16       0.443000
     37 HN7         -2.9910     2.5390     2.5360 hn         1 X16       0.412000
     38 HN7A        -4.3860     2.3570     3.3340 hn         1 X16       0.412000
     39 H13         -2.5530    -3.5590     0.7110 ha         1 X16       0.129000
     40 H14         -0.4170    -4.2290     1.7780 ha         1 X16       0.120000
     41 H15          1.6790    -3.0230     1.2670 ha         1 X16       0.123000
     42 H17         -0.4840    -0.3890    -1.3970 ha         1 X16       0.151000
     43 H19          1.5740    -0.5370    -2.5150 ha         1 X16       0.122000
     44 H20          3.6390     0.6840    -3.0150 ha         1 X16       0.106000
     45 H23          2.8240    -0.9990     1.5990 ha         1 X16       0.134000
     46 HN28         6.9950     2.0220    -2.5210 hn         1 X16       0.500000
     47 HN2A         5.5650     1.3910    -3.2540 hn         1 X16       0.500000
     48 H29          7.9820     0.3310     2.1000 hc         1 X16       0.057367
     49 H29A         7.7810     2.0860     1.9640 hc         1 X16       0.057367
     50 H29B         6.7590     1.1650     3.0740 hc         1 X16       0.057367
@<TRIPOS>BOND
     1     1     2 1   
     2     1    30 1   
     3     1    31 1   
     4     1    32 1   
     5     2     3 1   
     6     2     6 1   
     7     2    33 1   
     8     3     4 1   
     9     3     7 1   
    10     3    34 1   
    11     4     5 1   
    12     4     8 2   
    13     5     9 1   
    14     5    35 1   
    15     6    36 1   
    16     7    37 1   
    17     7    38 1   
    18     9    10 2   
    19     9    11 2   
    20     9    12 1   
    21    12    13 ar  
    22    12    17 ar  
    23    13    14 ar  
    24    13    39 1   
    25    14    15 ar  
    26    14    40 1   
    27    15    16 ar  
    28    15    41 1   
    29    16    17 ar  
    30    16    18 1   
    31    17    42 1   
    32    18    19 ar  
    33    18    23 ar  
    34    19    20 ar  
    35    19    43 1   
    36    20    21 ar  
    37    20    44 1   
    38    21    22 ar  
    39    21    27 ar  
    40    22    23 ar  
    41    22    24 ar  
    42    23    45 1   
    43    24    25 ar  
    44    25    26 ar  
    45    25    29 1   
    46    26    27 ar  
    47    27    28 1   
    48    28    46 1   
    49    28    47 1   
    50    29    48 1   
    51    29    49 1   
    52    29    50 1   
@<TRIPOS>SUBSTRUCTURE
     1 X16         1 TEMP              0 ****  ****    0 ROOT
