@<TRIPOS>MOLECULE
X16
   50    52     1     0     0
SMALL
bcc


@<TRIPOS>ATOM
      1 C1          -6.3810     2.8700     1.8820 c3         1 X16      -0.134100
      2 C2          -5.4890     2.1240     0.9060 c3         1 X16       0.110100
      3 C3          -4.2360     1.5400     1.6060 c3         1 X16       0.058500
      4 C4          -3.3500     0.9080     0.5450 c          1 X16       0.716100
      5 N5          -3.8700    -0.2390    -0.0090 ns         1 X16      -0.655300
      6 O6          -5.1280     2.9210    -0.2020 oh         1 X16      -0.578800
      7 N7          -3.4420     2.4600     2.3830 n8         1 X16      -0.882800
      8 O8          -2.2880     1.3580     0.1900 o          1 X16      -0.530100
      9 S9          -3.1180    -1.1000    -1.2350 sy         1 X16       1.324900
     10 O10         -4.0010    -2.2280    -1.4620 o          1 X16      -0.598300
     11 O11         -2.7930    -0.2000    -2.3200 o          1 X16      -0.598300
     12 C12         -1.6230    -1.6820    -0.4940 ca         1 X16      -0.292500
     13 C13         -1.6920    -2.7840     0.3490 ca         1 X16      -0.035000
     14 C14         -0.5210    -3.2360     0.9350 ca         1 X16      -0.150000
     15 C15          0.6830    -2.6000     0.6750 ca         1 X16      -0.058000
     16 C16          0.7480    -1.4970    -0.1770 cp         1 X16      -0.058000
     17 C17         -0.4280    -1.0390    -0.7680 ca         1 X16       0.004000
     18 C18          2.0320    -0.8200    -0.4430 cp         1 X16      -0.007000
     19 C19          2.3190    -0.3180    -1.7300 ca         1 X16      -0.135000
     20 C20          3.5090     0.3130    -1.9840 ca         1 X16      -0.084000
     21 C21          4.4620     0.4730    -0.9640 ca         1 X16      -0.314600
     22 C22          4.1910    -0.0220     0.3240 ca         1 X16       0.456600
     23 C23          2.9630    -0.6680     0.5610 ca         1 X16      -0.174300
     24 N24          5.0700     0.1090     1.3520 nb         1 X16      -0.747000
     25 C25          6.1940     0.7230     1.0870 ca         1 X16       0.720300
     26 N26          6.5640     1.2370    -0.1000 nb         1 X16      -0.829000
     27 C27          5.7350     1.1250    -1.1210 ca         1 X16       0.746200
     28 N28          6.1120     1.6430    -2.2910 nv         1 X16      -0.969500
     29 C29          7.1880     0.8870     2.1930 c3         1 X16      -0.134400
     30 H1          -7.3070     3.1720     1.3930 hc         1 X16       0.047367
     31 H1A         -6.6410     2.2460     2.7370 hc         1 X16       0.047367
     32 H1B         -5.8950     3.7720     2.2610 hc         1 X16       0.047367
     33 H2          -6.0600     1.2880     0.4900 h1         1 X16       0.078700
     34 H3          -4.5820     0.7460     2.2760 h1         1 X16       0.076700
     35 HN5         -4.7040    -0.6690     0.3730 hn         1 X16       0.341500
     36 HO6         -4.8050     3.7720     0.1130 ho         1 X16       0.404000
     37 HN7         -3.1730     3.2730     1.8430 hn         1 X16       0.356800
     38 HN7A        -3.9740     2.7910     3.1770 hn         1 X16       0.356800
     39 H13         -2.6300    -3.2840     0.5490 ha         1 X16       0.147000
     40 H14         -0.5460    -4.0960     1.5890 ha         1 X16       0.138000
     41 H15          1.5890    -2.9820     1.1270 ha         1 X16       0.141000
     42 H17         -0.4090    -0.1760    -1.4180 ha         1 X16       0.169000
     43 H19          1.6080    -0.4510    -2.5350 ha         1 X16       0.140000
     44 H20          3.6970     0.6750    -2.9860 ha         1 X16       0.124000
     45 H23          2.7640    -1.0210     1.5650 ha         1 X16       0.152000
     46 HN28         7.0180     2.0740    -2.3700 hn         1 X16       0.444800
     47 HN2A         5.5680     1.5540    -3.1290 hn         1 X16       0.444800
     48 H29          8.1460     0.4490     1.9110 hc         1 X16       0.057367
     49 H29A         7.3670     1.9450     2.3900 hc         1 X16       0.057367
     50 H29B         6.8400     0.4150     3.1080 hc         1 X16       0.057367
@<TRIPOS>BOND
     1     1     2 1   
     2     1    30 1   
     3     1    31 1   
     4     1    32 1   
     5     2     3 1   
     6     2     6 1   
     7     2    33 1   
     8     3     4 1   
     9     3     7 1   
    10     3    34 1   
    11     4     5 1   
    12     4     8 2   
    13     5     9 1   
    14     5    35 1   
    15     6    36 1   
    16     7    37 1   
    17     7    38 1   
    18     9    10 2   
    19     9    11 2   
    20     9    12 1   
    21    12    13 ar  
    22    12    17 ar  
    23    13    14 ar  
    24    13    39 1   
    25    14    15 ar  
    26    14    40 1   
    27    15    16 ar  
    28    15    41 1   
    29    16    17 ar  
    30    16    18 1   
    31    17    42 1   
    32    18    19 ar  
    33    18    23 ar  
    34    19    20 ar  
    35    19    43 1   
    36    20    21 ar  
    37    20    44 1   
    38    21    22 ar  
    39    21    27 ar  
    40    22    23 ar  
    41    22    24 ar  
    42    23    45 1   
    43    24    25 ar  
    44    25    26 ar  
    45    25    29 1   
    46    26    27 ar  
    47    27    28 1   
    48    28    46 1   
    49    28    47 1   
    50    29    48 1   
    51    29    49 1   
    52    29    50 1   
@<TRIPOS>SUBSTRUCTURE
     1 X16         1 TEMP              0 ****  ****    0 ROOT
