@<TRIPOS>MOLECULE
X17
   56    60     1     0     0
SMALL
No Charge or Current Charge


@<TRIPOS>ATOM
      1 C1           3.8800     0.4460    -2.3870 c3         1 X17      -0.032800
      2 N1          -1.0000    -2.9750    -0.4630 n          1 X17      -0.383300
      3 O1           5.1680     0.6990     0.1390 os         1 X17      -0.341100
      4 C2           3.1530     0.1990    -1.0690 ca         1 X17      -0.112300
      5 N2          -0.7350    -1.6450     1.3430 n2         1 X17      -0.696900
      6 O2          -0.7620    -1.5960    -2.3050 o          1 X17      -0.517000
      7 C3           1.7920    -0.1660    -1.0790 ca         1 X17      -0.068000
      8 N3          -1.2990    -3.8620     1.6650 nv         1 X17      -1.022200
      9 C4           1.0770    -0.3990     0.1200 ca         1 X17      -0.108300
     10 C5           1.7790    -0.2470     1.3390 ca         1 X17      -0.050000
     11 C6           3.1360     0.1150     1.3610 ca         1 X17      -0.207000
     12 C7           3.8330     0.3390     0.1580 ca         1 X17       0.142100
     13 C8           5.9380     0.8680     1.3420 c3         1 X17       0.148900
     14 C9          -0.4290    -0.8020     0.1130 c5         1 X17       0.135500
     15 C10         -0.7320    -1.7800    -1.0930 c          1 X17       0.550000
     16 C11         -0.9980    -2.7990     0.8950 c2         1 X17       0.659800
     17 C13         -1.3730     0.4890     0.1130 c6         1 X17      -0.008000
     18 C14         -1.0640     1.4480    -1.0980 c6         1 X17      -0.068400
     19 C15         -2.0040     2.6870    -1.0940 c6         1 X17      -0.057367
     20 C16         -1.7990     3.4850     0.2240 c6         1 X17      -0.069067
     21 C17         -2.1360     2.5750     1.4370 c6         1 X17      -0.057367
     22 C18         -1.1970     1.3340     1.4300 c6         1 X17      -0.068400
     23 C19         -3.6150     2.1060     1.3390 c6         1 X17      -0.069067
     24 C20         -3.8220     1.3120     0.0200 c6         1 X17      -0.057367
     25 C21         -3.4820     2.2200    -1.1940 c6         1 X17      -0.069067
     26 C22         -2.8880     0.0690     0.0120 c6         1 X17      -0.068400
     27 H1           4.2590     1.4740    -2.4390 hc         1 X17       0.041700
     28 H1A          4.7340    -0.2330    -2.4980 hc         1 X17       0.041700
     29 H1B          3.2250     0.2930    -3.2530 hc         1 X17       0.041700
     30 H3           1.2930    -0.2460    -2.0390 ha         1 X17       0.132000
     31 HN3         -1.0800    -3.6890     2.6390 hn         1 X17       0.481000
     32 HN3A        -0.9490    -4.7430     1.3120 hn         1 X17       0.481000
     33 H5           1.2730    -0.4010     2.2900 ha         1 X17       0.130000
     34 H6           3.6250     0.2190     2.3240 ha         1 X17       0.115000
     35 H8           5.9710    -0.0660     1.9180 h1         1 X17       0.039033
     36 H8A          6.9690     1.1520     1.0960 h1         1 X17       0.039033
     37 H8B          5.5090     1.6570     1.9720 h1         1 X17       0.039033
     38 H12         -0.6480    -4.9930    -1.0060 h1         1 X17       0.049033
     39 H12A        -2.3730    -4.5370    -0.8710 h1         1 X17       0.049033
     40 H12B        -1.4170    -4.0130    -2.2810 h1         1 X17       0.049033
     41 H14         -0.0260     1.8010    -1.0570 hc         1 X17       0.049533
     42 H14A        -1.1730     0.9220    -2.0540 hc         1 X17       0.049533
     43 H15         -1.7650     3.3310    -1.9520 hc         1 X17       0.046700
     44 H16         -0.7630     3.8440     0.2940 hc         1 X17       0.038867
     45 H16A        -2.4390     4.3790     0.2300 hc         1 X17       0.038867
     46 H17         -1.9910     3.1390     2.3690 hc         1 X17       0.046700
     47 H18         -1.4070     0.7230     2.3180 hc         1 X17       0.049533
     48 H18A        -0.1580     1.6750     1.5330 hc         1 X17       0.049533
     49 H19         -3.8720     1.4800     2.2050 hc         1 X17       0.038867
     50 H19A        -4.2900     2.9720     1.3710 hc         1 X17       0.038867
     51 H20         -4.8690     0.9840    -0.0500 hc         1 X17       0.046700
     52 H21         -4.1540     3.0890    -1.2180 hc         1 X17       0.038867
     53 H21A        -3.6450     1.6750    -2.1340 hc         1 X17       0.038867
     54 H22         -3.0720    -0.5080    -0.9050 hc         1 X17       0.049533
     55 H22A        -3.1630    -0.5910     0.8460 hc         1 X17       0.049533
     56 C12         -1.3820    -4.2000    -1.2010 c3         1 X17       0.096300
@<TRIPOS>BOND
     1     1     4 1   
     2     1    27 1   
     3     1    28 1   
     4     1    29 1   
     5     2    15 1   
     6     2    16 1   
     7     2    56 1   
     8     3    12 1   
     9     3    13 1   
    10     4     7 ar  
    11     4    12 ar  
    12     5    14 1   
    13     5    16 2   
    14     6    15 2   
    15     7     9 ar  
    16     7    30 1   
    17     8    16 1   
    18     8    31 1   
    19     8    32 1   
    20     9    10 ar  
    21     9    14 1   
    22    10    11 ar  
    23    10    33 1   
    24    11    12 ar  
    25    11    34 1   
    26    13    35 1   
    27    13    36 1   
    28    13    37 1   
    29    14    15 1   
    30    14    17 1   
    31    17    18 1   
    32    17    22 1   
    33    17    26 1   
    34    18    19 1   
    35    18    41 1   
    36    18    42 1   
    37    19    20 1   
    38    19    25 1   
    39    19    43 1   
    40    20    21 1   
    41    20    44 1   
    42    20    45 1   
    43    21    22 1   
    44    21    23 1   
    45    21    46 1   
    46    22    47 1   
    47    22    48 1   
    48    23    24 1   
    49    23    49 1   
    50    23    50 1   
    51    24    25 1   
    52    24    26 1   
    53    24    51 1   
    54    25    52 1   
    55    25    53 1   
    56    26    54 1   
    57    26    55 1   
    58    38    56 1   
    59    39    56 1   
    60    40    56 1   
@<TRIPOS>SUBSTRUCTURE
     1 X17         1 TEMP              0 ****  ****    0 ROOT
