@<TRIPOS>MOLECULE
X18
   53    55     1     0     0
SMALL
abcg2


@<TRIPOS>ATOM
      1 C10         -5.2160    13.6920    45.0230 ca         1 X18      -0.070900
      2 C13         -5.6330    13.2160    42.7350 ca         1 X18      -0.138000
      3 C15         -2.2030     8.0780    41.5150 ca         1 X18      -0.053000
      4 C20          0.0720     6.4390    38.8380 c3         1 X18      -0.058000
      5 C21          1.1510     6.8180    37.8120 c3         1 X18      -0.086433
      6 C22         -1.2520     7.1030    38.4430 c3         1 X18      -0.086433
      7 C24          0.0570     5.2900    42.1020 c          1 X18       0.588000
      8 C28         -2.9870     6.4500    43.6950 ca         1 X18      -0.126000
      9 C01         -3.7340     7.5670    43.3360 ca         1 X18      -0.082000
     10 C02         -3.3530     8.3750    42.2590 ca         1 X18      -0.153600
     11 C03         -4.1060     9.6080    41.8780 c          1 X18       0.614700
     12 C05         -6.2220    10.8480    42.0500 c3         1 X18       0.073400
     13 C06         -7.7020    10.4860    42.1460 c3         1 X18      -0.102100
     14 C07         -5.8460    11.8880    43.0930 ca         1 X18       0.338300
     15 C09         -5.4450    12.3520    45.3090 ca         1 X18       0.368900
     16 C12         -5.3120    14.1430    43.7170 ca         1 X18      -0.045000
     17 C16         -1.4620     6.9630    41.8560 ca         1 X18       0.005600
     18 C18          0.5740     6.8650    40.2490 c3         1 X18       0.136700
     19 C19          0.9080     8.3480    40.4150 c3         1 X18      -0.104100
     20 C27         -1.8590     6.1620    42.9470 ca         1 X18       0.021600
     21 N04         -5.4180     9.6440    42.1940 ns         1 X18      -0.491900
     22 N08         -5.7550    11.4730    44.3590 nb         1 X18      -0.673000
     23 N17         -0.2970     6.3960    41.3380 n          1 X18      -0.296000
     24 N26         -0.9260     5.1550    43.0610 ns         1 X18      -0.503600
     25 O14         -3.5540    10.5470    41.2950 o          1 X18      -0.614100
     26 O25          1.0440     4.5790    41.9650 o          1 X18      -0.565000
     27 BR11        -4.7610    14.8930    46.4350 br         1 X18      -0.090100
     28 H1          -5.7080    13.5200    41.6990 ha         1 X18       0.133000
     29 H2          -1.9360     8.7260    40.6970 ha         1 X18       0.147000
     30 H3           2.1250     6.4120    38.0970 hc         1 X18       0.038033
     31 H4           0.8880     6.4100    36.8340 hc         1 X18       0.038033
     32 H5           1.2480     7.8990    37.7060 hc         1 X18       0.038033
     33 H6          -2.0670     6.7960    39.0990 hc         1 X18       0.038033
     34 H7          -1.1850     8.1920    38.4600 hc         1 X18       0.038033
     35 H8          -1.5170     6.8060    37.4250 hc         1 X18       0.038033
     36 H9          -3.2680     5.8330    44.5380 ha         1 X18       0.125000
     37 H10         -4.5980     7.8200    43.9350 ha         1 X18       0.119000
     38 H11         -6.0170    11.2720    41.0670 h1         1 X18       0.078700
     39 H12         -8.3140    11.3800    42.0190 hc         1 X18       0.049700
     40 H13         -7.9660     9.7670    41.3700 hc         1 X18       0.049700
     41 H14         -7.9260    10.0520    43.1220 hc         1 X18       0.049700
     42 H15         -5.3750    11.9830    46.3260 h4         1 X18       0.034100
     43 H16         -5.1350    15.1810    43.4680 ha         1 X18       0.136000
     44 H17          1.4950     6.3060    40.4150 h1         1 X18       0.079700
     45 H18          1.1550     8.5550    41.4570 hc         1 X18       0.048367
     46 H19          1.7750     8.6000    39.8080 hc         1 X18       0.048367
     47 H20          0.0940     9.0070    40.1210 hc         1 X18       0.048367
     48 H21         -0.8860     4.5960    39.5120 hc         1 X18       0.038033
     49 H22         -0.4230     4.6000    37.8090 hc         1 X18       0.038033
     50 H23          0.8120     4.3990    39.0600 hc         1 X18       0.038033
     51 H24         -5.8330     8.8600    42.6700 hn         1 X18       0.320500
     52 H25         -0.9130     4.4290    43.7590 hn         1 X18       0.469000
     53 C23         -0.1160     4.9150    38.8090 c3         1 X18      -0.086433
@<TRIPOS>BOND
     1     1    15 ar  
     2     1    16 ar  
     3     1    27 1   
     4     2    14 ar  
     5     2    16 ar  
     6     2    28 1   
     7     3    10 ar  
     8     3    17 ar  
     9     3    29 1   
    10     4     5 1   
    11     4     6 1   
    12     4    18 1   
    13     4    53 1   
    14     5    30 1   
    15     5    31 1   
    16     5    32 1   
    17     6    33 1   
    18     6    34 1   
    19     6    35 1   
    20     7    23 1   
    21     7    24 1   
    22     7    26 2   
    23     8     9 ar  
    24     8    20 ar  
    25     8    36 1   
    26     9    10 ar  
    27     9    37 1   
    28    10    11 1   
    29    11    21 1   
    30    11    25 2   
    31    12    13 1   
    32    12    14 1   
    33    12    21 1   
    34    12    38 1   
    35    13    39 1   
    36    13    40 1   
    37    13    41 1   
    38    14    22 ar  
    39    15    22 ar  
    40    15    42 1   
    41    16    43 1   
    42    17    20 ar  
    43    17    23 1   
    44    18    19 1   
    45    18    23 1   
    46    18    44 1   
    47    19    45 1   
    48    19    46 1   
    49    19    47 1   
    50    20    24 1   
    51    21    51 1   
    52    24    52 1   
    53    48    53 1   
    54    49    53 1   
    55    50    53 1   
@<TRIPOS>SUBSTRUCTURE
     1 X18         1 TEMP              0 ****  ****    0 ROOT
