@<TRIPOS>MOLECULE
X18
   53    55     1     0     0
SMALL
No Charge or Current Charge


@<TRIPOS>ATOM
      1 C10         -6.9200    13.4970    45.8110 ca         1 X18      -0.070900
      2 C13         -6.2730    13.6630    43.4960 ca         1 X18      -0.138000
      3 C15         -1.8990     8.1470    41.3580 ca         1 X18      -0.053000
      4 C20         -0.0490     5.9180    38.6490 c3         1 X18      -0.058000
      5 C21          0.9410     6.0770    37.4600 c3         1 X18      -0.086433
      6 C22         -1.3700     6.6530    38.2920 c3         1 X18      -0.086433
      7 C24          0.1260     5.1340    42.0890 c          1 X18       0.588000
      8 C28         -2.3740     7.0590    43.9450 ca         1 X18      -0.126000
      9 C01         -3.0960     8.1870    43.5050 ca         1 X18      -0.082000
     10 C02         -2.8790     8.7340    42.2030 ca         1 X18      -0.153600
     11 C03         -3.6790     9.9120    41.6840 c          1 X18       0.614700
     12 C05         -5.5170    11.5700    42.2340 c3         1 X18       0.073400
     13 C06         -6.6930    11.1110    41.3450 c3         1 X18      -0.102100
     14 C07         -6.0160    12.2770    43.5060 ca         1 X18       0.338300
     15 C09         -6.6430    12.1180    45.7420 ca         1 X18       0.368900
     16 C12         -6.7320    14.2890    44.6670 ca         1 X18      -0.045000
     17 C16         -1.1190     7.0880    41.8510 ca         1 X18       0.005600
     18 C18          0.6060     6.4570    39.9830 c3         1 X18       0.136700
     19 C19          1.1190     7.9210    39.9300 c3         1 X18      -0.104100
     20 C27         -1.4140     6.5310    43.0830 ca         1 X18       0.021600
     21 N04         -4.6220    10.4400    42.5380 ns         1 X18      -0.491900
     22 N08         -6.1990    11.5110    44.6140 nb         1 X18      -0.673000
     23 N17         -0.1970     6.1850    41.2070 n          1 X18      -0.296000
     24 N26         -0.6350     5.3810    43.1910 ns         1 X18      -0.503600
     25 O14         -3.5010    10.3800    40.5670 o          1 X18      -0.614100
     26 O25          0.9220     4.2230    41.9390 o          1 X18      -0.565000
     27 Br11        -7.5450    14.2850    47.4400 br         1 X18      -0.090100
     28 H1          -6.1170    14.2420    42.5900 ha         1 X18       0.133000
     29 H2          -1.7510     8.5230    40.3510 ha         1 X18       0.147000
     30 H3           1.9070     5.6090    37.6870 hc         1 X18       0.038033
     31 H4           0.5450     5.6050    36.5530 hc         1 X18       0.038033
     32 H5           1.1200     7.1330    37.2240 hc         1 X18       0.038033
     33 H6          -2.1230     6.5150    39.0760 hc         1 X18       0.038033
     34 H7          -1.2070     7.7270    38.1460 hc         1 X18       0.038033
     35 H8          -1.7930     6.2570    37.3600 hc         1 X18       0.038033
     36 H9          -2.5750     6.6040    44.9120 ha         1 X18       0.125000
     37 H10         -3.8450     8.6040    44.1730 ha         1 X18       0.119000
     38 H11         -4.9350    12.3060    41.6630 h1         1 X18       0.078700
     39 H12         -7.3350    11.9620    41.0880 hc         1 X18       0.049700
     40 H13         -6.3280    10.6680    40.4110 hc         1 X18       0.049700
     41 H14         -7.3040    10.3640    41.8660 hc         1 X18       0.049700
     42 H15         -6.7800    11.4800    46.6140 h4         1 X18       0.034100
     43 H16         -6.9380    15.3570    44.6860 ha         1 X18       0.136000
     44 H17          1.5240     5.8660    40.1040 h1         1 X18       0.079700
     45 H18          1.4920     8.2280    40.9140 hc         1 X18       0.048367
     46 H19          1.9540     8.0170    39.2260 hc         1 X18       0.048367
     47 H20          0.3420     8.6270    39.6250 hc         1 X18       0.048367
     48 H21         -1.1180     4.2230    39.5730 hc         1 X18       0.038033
     49 H22         -0.7620     3.9900    37.8580 hc         1 X18       0.038033
     50 H23          0.5350     3.8350    39.0550 hc         1 X18       0.038033
     51 H24         -4.7060    10.0170    43.4530 hn         1 X18       0.320500
     52 H25         -0.6060     4.7850    44.0120 hn         1 X18       0.469000
     53 C23         -0.3670     4.4020    38.7950 c3         1 X18      -0.086433
@<TRIPOS>BOND
     1     1    15 ar  
     2     1    16 ar  
     3     1    27 1   
     4     2    14 ar  
     5     2    16 ar  
     6     2    28 1   
     7     3    10 ar  
     8     3    17 ar  
     9     3    29 1   
    10     4     5 1   
    11     4     6 1   
    12     4    18 1   
    13     4    53 1   
    14     5    30 1   
    15     5    31 1   
    16     5    32 1   
    17     6    33 1   
    18     6    34 1   
    19     6    35 1   
    20     7    23 1   
    21     7    24 1   
    22     7    26 2   
    23     8     9 ar  
    24     8    20 ar  
    25     8    36 1   
    26     9    10 ar  
    27     9    37 1   
    28    10    11 1   
    29    11    21 1   
    30    11    25 2   
    31    12    13 1   
    32    12    14 1   
    33    12    21 1   
    34    12    38 1   
    35    13    39 1   
    36    13    40 1   
    37    13    41 1   
    38    14    22 ar  
    39    15    22 ar  
    40    15    42 1   
    41    16    43 1   
    42    17    20 ar  
    43    17    23 1   
    44    18    19 1   
    45    18    23 1   
    46    18    44 1   
    47    19    45 1   
    48    19    46 1   
    49    19    47 1   
    50    20    24 1   
    51    21    51 1   
    52    24    52 1   
    53    48    53 1   
    54    49    53 1   
    55    50    53 1   
@<TRIPOS>SUBSTRUCTURE
     1 X18         1 TEMP              0 ****  ****    0 ROOT
