@<TRIPOS>MOLECULE
X19
   41    42     1     0     0
SMALL
No Charge or Current Charge


@<TRIPOS>ATOM
      1 N01          2.7500    -1.6900     0.1080 na         1 X19       0.000800
      2 N02          1.7860    -2.6860     0.0850 nc         1 X19      -0.500800
      3 N03          4.2800     0.8600     0.1000 ns         1 X19      -0.509900
      4 C04          0.6650    -1.9990     0.0160 cd         1 X19       0.239300
      5 C05          0.8690    -0.6070     0.0030 cd         1 X19      -0.114300
      6 C06          2.2270    -0.3880     0.0520 cc         1 X19      -0.227600
      7 C07         -0.7050    -2.6240    -0.0280 c6         1 X19      -0.101700
      8 C08         -1.7640    -1.6140    -0.5400 c6         1 X19      -0.073400
      9 C09         -1.6660    -0.2340     0.1980 c6         1 X19      -0.052700
     10 C10         -0.2580     0.4060    -0.0770 c6         1 X19       0.003900
     11 C11         -2.9000     0.7460    -0.0710 c3         1 X19      -0.035000
     12 C12          2.9060     0.9360     0.0330 c          1 X19       0.635700
     13 C13          5.1670     2.0260     0.0950 c3         1 X19       0.093300
     14 C14         -2.6680     2.1070     0.6560 c3         1 X19      -0.085600
     15 C15         -3.0760     1.0390    -1.5920 c3         1 X19      -0.085600
     16 C16         -4.2230     0.0990     0.4890 c3         1 X19      -0.069400
     17 C17         -5.5170     0.9510     0.4510 c3         1 X19      -0.088100
     18 O18          2.3300     2.0110    -0.0380 o          1 X19      -0.581100
     19 HN01         3.7370    -1.9400     0.1580 hn         1 X19       0.371000
     20 HN03         4.6960    -0.0580     0.1580 hn         1 X19       0.311500
     21 H07         -0.7020    -3.5150    -0.6700 hc         1 X19       0.056200
     22 H07A        -0.9820    -2.9670     0.9780 hc         1 X19       0.056200
     23 H08         -1.6250    -1.4670    -1.6200 hc         1 X19       0.045200
     24 H08A        -2.7490    -2.0760    -0.4170 hc         1 X19       0.045200
     25 H09         -1.7000    -0.4500     1.2760 hc         1 X19       0.045700
     26 H10         -0.0730     1.2020     0.6550 hc         1 X19       0.062200
     27 H10A        -0.2350     0.8810    -1.0660 hc         1 X19       0.062200
     28 H13          5.0240     2.5960    -0.8320 h1         1 X19       0.043033
     29 H13A         4.9400     2.6680     0.9570 h1         1 X19       0.043033
     30 H13B         6.2110     1.6940     0.1570 h1         1 X19       0.043033
     31 H14         -1.7850     2.6270     0.2690 hc         1 X19       0.033700
     32 H14A        -3.5080     2.7960     0.5080 hc         1 X19       0.033700
     33 H14B        -2.5350     1.9590     1.7340 hc         1 X19       0.033700
     34 H15         -3.3520     0.1320    -2.1430 hc         1 X19       0.033700
     35 H15A        -3.8620     1.7820    -1.7660 hc         1 X19       0.033700
     36 H15B        -2.1600     1.4400    -2.0370 hc         1 X19       0.033700
     37 H16         -4.4480    -0.8150    -0.0690 hc         1 X19       0.036200
     38 H16A        -4.0580    -0.2110     1.5280 hc         1 X19       0.036200
     39 H17         -5.4490     1.8200     1.1160 hc         1 X19       0.031033
     40 H17A        -5.7460     1.2980    -0.5630 hc         1 X19       0.031033
     41 H17B        -6.3670     0.3480     0.7930 hc         1 X19       0.031033
@<TRIPOS>BOND
     1     1     2 1   
     2     1     6 1   
     3     1    19 1   
     4     2     4 2   
     5     3    12 1   
     6     3    13 1   
     7     3    20 1   
     8     4     5 1   
     9     4     7 1   
    10     5     6 2   
    11     5    10 1   
    12     6    12 1   
    13     7     8 1   
    14     7    21 1   
    15     7    22 1   
    16     8     9 1   
    17     8    23 1   
    18     8    24 1   
    19     9    10 1   
    20     9    11 1   
    21     9    25 1   
    22    10    26 1   
    23    10    27 1   
    24    11    14 1   
    25    11    15 1   
    26    11    16 1   
    27    12    18 2   
    28    13    28 1   
    29    13    29 1   
    30    13    30 1   
    31    14    31 1   
    32    14    32 1   
    33    14    33 1   
    34    15    34 1   
    35    15    35 1   
    36    15    36 1   
    37    16    17 1   
    38    16    37 1   
    39    16    38 1   
    40    17    39 1   
    41    17    40 1   
    42    17    41 1   
@<TRIPOS>SUBSTRUCTURE
     1 X19         1 TEMP              0 ****  ****    0 ROOT
