@<TRIPOS>MOLECULE
X1A
   50    54     1     0     0
SMALL
abcg2


@<TRIPOS>ATOM
      1 C2          57.1400     3.5100    37.0860 c          1 X1A       0.606100
      2 C3          57.4230     2.0580    36.8370 c3         1 X1A      -0.175100
      3 C5          55.5480     5.2690    36.5770 cc         1 X1A       0.540300
      4 C7          54.2280     6.9730    36.2200 cd         1 X1A       0.309900
      5 C8          55.1450     7.6280    36.9760 cc         1 X1A      -0.322300
      6 N10         54.6170     9.3510    38.7150 nq         1 X1A      -0.724600
      7 C11         55.2490     8.8120    39.9190 cy         1 X1A       0.163300
      8 C12         53.8600     8.7220    40.5620 cy         1 X1A      -0.105000
      9 C16         53.4730     9.8790    41.4650 c5         1 X1A       0.235800
     10 C17         51.5020    10.2380    42.8210 cc         1 X1A       0.429000
     11 C18         51.8570    11.5560    43.1080 cd         1 X1A      -0.356000
     12 C19         51.0140    12.3750    43.8640 cd         1 X1A       0.452300
     13 C24         48.5460     8.8810    43.8530 cd         1 X1A       0.550200
     14 C27         53.3100     8.8450    39.1270 cy         1 X1A       0.163300
     15 O1          57.8460     4.2460    37.7480 o          1 X1A      -0.569100
     16 N4          55.9990     3.9740    36.4980 ns         1 X1A      -0.475400
     17 N6          54.4550     5.6450    35.9950 nd         1 X1A      -0.707000
     18 C9          55.1330     9.0690    37.3950 c3         1 X1A       0.255100
     19 C13         53.4500     7.5210    41.3880 c5         1 X1A      -0.086400
     20 C14         52.1060     7.9430    41.9680 c5         1 X1A       0.239800
     21 N15         52.2480     9.4030    42.1010 nh         1 X1A      -0.816400
     22 C20         51.4460    13.7750    44.1690 c3         1 X1A      -0.152400
     23 N21         49.8490    11.9790    44.3490 nc         1 X1A      -0.691000
     24 C22         49.5040    10.7260    44.0710 cc         1 X1A       0.454500
     25 N23         48.3920    10.0930    44.4070 nd         1 X1A      -0.402300
     26 N25         49.6600     8.6810    43.1910 nc         1 X1A      -0.631100
     27 N26         50.2910     9.8660    43.3340 na         1 X1A       0.033900
     28 S28         56.3840     6.5080    37.4460 ss         1 X1A       0.047600
     29 H3          58.3340     1.7600    37.3490 hc         1 X1A       0.071033
     30 H2          56.5990     1.4380    37.1910 hc         1 X1A       0.071033
     31 H1          57.5390     1.8690    35.7690 hc         1 X1A       0.071033
     32 H5          53.3530     7.4400    35.7900 h4         1 X1A       0.040100
     33 H8          55.6930     7.8140    39.7990 h1         1 X1A       0.057700
     34 H9          55.9890     9.4650    40.3910 h1         1 X1A       0.057700
     35 H14         54.2520    10.0670    42.2140 h1         1 X1A       0.063200
     36 H15         53.2980    10.8040    40.9130 h1         1 X1A       0.063200
     37 H16         52.8010    11.9490    42.7630 ha         1 X1A       0.135000
     38 H20         47.8060     8.0990    43.9340 h5         1 X1A       0.067800
     39 H21         52.4710     9.5270    38.9570 h1         1 X1A       0.057700
     40 H22         53.0580     7.8630    38.7060 h1         1 X1A       0.057700
     41 H4          55.4300     3.3480    35.9460 hn         1 X1A       0.341500
     42 H6          56.1380     9.4930    37.3260 h1         1 X1A       0.067200
     43 H7          54.5210     9.6150    36.6720 h1         1 X1A       0.067200
     44 H10         53.3710     6.6050    40.8030 hc         1 X1A       0.063700
     45 H11         54.1790     7.3530    42.1840 hc         1 X1A       0.063700
     46 H13         51.2900     7.6990    41.2880 h1         1 X1A       0.071200
     47 H12         51.8980     7.4760    42.9270 h1         1 X1A       0.071200
     48 H18         50.6320    14.3460    44.6090 hc         1 X1A       0.057700
     49 H17         52.2810    13.7700    44.8710 hc         1 X1A       0.057700
     50 H19         51.7880    14.2860    43.2680 hc         1 X1A       0.057700
@<TRIPOS>BOND
     1     1     2 1   
     2     1    15 2   
     3     1    16 1   
     4     2    29 1   
     5     2    30 1   
     6     2    31 1   
     7     3    16 1   
     8     3    17 2   
     9     3    28 1   
    10     4     5 2   
    11     4    17 1   
    12     4    32 1   
    13     5    18 1   
    14     5    28 1   
    15     6     7 1   
    16     6    14 1   
    17     6    18 1   
    18     7     8 1   
    19     7    33 1   
    20     7    34 1   
    21     8     9 1   
    22     8    14 1   
    23     8    19 1   
    24     9    21 1   
    25     9    35 1   
    26     9    36 1   
    27    10    11 2   
    28    10    21 1   
    29    10    27 1   
    30    11    12 1   
    31    11    37 1   
    32    12    22 1   
    33    12    23 2   
    34    13    25 1   
    35    13    26 2   
    36    13    38 1   
    37    14    39 1   
    38    14    40 1   
    39    16    41 1   
    40    18    42 1   
    41    18    43 1   
    42    19    20 1   
    43    19    44 1   
    44    19    45 1   
    45    20    21 1   
    46    20    46 1   
    47    20    47 1   
    48    22    48 1   
    49    22    49 1   
    50    22    50 1   
    51    23    24 1   
    52    24    25 2   
    53    24    27 1   
    54    26    27 1   
@<TRIPOS>SUBSTRUCTURE
     1 X1A         1 TEMP              0 ****  ****    0 ROOT
