@<TRIPOS>MOLECULE
X1A
   50    54     1     0     0
SMALL
No Charge or Current Charge


@<TRIPOS>ATOM
      1 C2          57.5470     3.7180    36.2340 c          1 X1A       0.606100
      2 C3          57.7800     2.3240    35.6690 c3         1 X1A      -0.175100
      3 C5          55.7400     5.3860    36.4690 cc         1 X1A       0.540300
      4 C7          54.0840     6.8500    36.6580 cd         1 X1A       0.309900
      5 C8          55.0750     7.5670    37.2830 cc         1 X1A      -0.322300
      6 N10         54.4990     8.9360    39.2600 nq         1 X1A      -0.724600
      7 C11         55.1930     8.1630    40.3270 cy         1 X1A       0.163300
      8 C12         53.8470     8.3320    41.1200 cy         1 X1A      -0.105000
      9 C16         53.6190     9.6060    41.9700 c5         1 X1A       0.235800
     10 C17         51.5250    10.2870    43.0780 cc         1 X1A       0.429000
     11 C18         51.8960    11.6250    43.1330 cd         1 X1A      -0.356000
     12 C19         50.9600    12.6960    43.3060 cd         1 X1A       0.452300
     13 C24         48.2250     9.3540    43.5930 cd         1 X1A       0.550200
     14 C27         53.2210     8.2950    39.6780 cy         1 X1A       0.163300
     15 O1          58.4370     4.3500    36.7790 o          1 X1A      -0.569100
     16 N4          56.2690     4.1860    36.0770 ns         1 X1A      -0.475400
     17 N6          54.4660     5.5970    36.1950 nd         1 X1A      -0.707000
     18 C9          54.9680     8.9440    37.8720 c3         1 X1A       0.255100
     19 C13         53.4050     7.2740    42.1730 c5         1 X1A      -0.086400
     20 C14         52.0830     7.8890    42.7140 c5         1 X1A       0.239800
     21 N15         52.5110     9.2980    42.9120 nh         1 X1A      -0.816400
     22 C20         51.4110    14.1280    43.3390 c3         1 X1A      -0.152400
     23 N21         49.6620    12.5030    43.4610 nc         1 X1A      -0.691000
     24 C22         49.3170    11.1870    43.4610 cc         1 X1A       0.454500
     25 N23         48.0980    10.7360    43.6360 nd         1 X1A      -0.402300
     26 N25         49.4680     8.9130    43.3940 nc         1 X1A      -0.631100
     27 N26         50.1350    10.1030    43.3060 na         1 X1A       0.033900
     28 S28         56.5760     6.6860    37.2950 ss         1 X1A       0.047600
     29 H3          58.8110     1.9800    35.8110 hc         1 X1A       0.071033
     30 H2          57.0570     1.6310    36.1150 hc         1 X1A       0.071033
     31 H1          57.4930     2.3140    34.6110 hc         1 X1A       0.071033
     32 H5          53.0630     7.1830    36.5120 h4         1 X1A       0.040100
     33 H8          55.4260     7.1200    40.0770 h1         1 X1A       0.057700
     34 H9          56.0650     8.6440    40.7840 h1         1 X1A       0.057700
     35 H14         54.5210     9.8740    42.5370 h1         1 X1A       0.063200
     36 H15         53.3940    10.4690    41.3270 h1         1 X1A       0.063200
     37 H16         52.9400    11.8920    43.0460 ha         1 X1A       0.135000
     38 H20         47.3660     8.7050    43.7140 h5         1 X1A       0.067800
     39 H21         52.3130     8.8960    39.5510 h1         1 X1A       0.057700
     40 H22         53.0570     7.2790    39.2950 h1         1 X1A       0.057700
     41 H4          55.6340     3.5590    35.6080 hn         1 X1A       0.341500
     42 H6          55.9500     9.4350    37.8310 h1         1 X1A       0.067200
     43 H7          54.2750     9.5440    37.2660 h1         1 X1A       0.067200
     44 H10         53.2440     6.2790    41.7440 hc         1 X1A       0.063700
     45 H11         54.1430     7.1580    42.9770 hc         1 X1A       0.063700
     46 H13         51.2830     7.7960    41.9650 h1         1 X1A       0.071200
     47 H12         51.7570     7.4050    43.6460 h1         1 X1A       0.071200
     48 H18         51.4750    14.4900    44.3720 hc         1 X1A       0.057700
     49 H17         52.3990    14.2450    42.8810 hc         1 X1A       0.057700
     50 H19         50.7160    14.7790    42.7940 hc         1 X1A       0.057700
@<TRIPOS>BOND
     1     1     2 1   
     2     1    15 2   
     3     1    16 1   
     4     2    29 1   
     5     2    30 1   
     6     2    31 1   
     7     3    16 1   
     8     3    17 2   
     9     3    28 1   
    10     4     5 2   
    11     4    17 1   
    12     4    32 1   
    13     5    18 1   
    14     5    28 1   
    15     6     7 1   
    16     6    14 1   
    17     6    18 1   
    18     7     8 1   
    19     7    33 1   
    20     7    34 1   
    21     8     9 1   
    22     8    14 1   
    23     8    19 1   
    24     9    21 1   
    25     9    35 1   
    26     9    36 1   
    27    10    11 2   
    28    10    21 1   
    29    10    27 1   
    30    11    12 1   
    31    11    37 1   
    32    12    22 1   
    33    12    23 2   
    34    13    25 1   
    35    13    26 2   
    36    13    38 1   
    37    14    39 1   
    38    14    40 1   
    39    16    41 1   
    40    18    42 1   
    41    18    43 1   
    42    19    20 1   
    43    19    44 1   
    44    19    45 1   
    45    20    21 1   
    46    20    46 1   
    47    20    47 1   
    48    22    48 1   
    49    22    49 1   
    50    22    50 1   
    51    23    24 1   
    52    24    25 2   
    53    24    27 1   
    54    26    27 1   
@<TRIPOS>SUBSTRUCTURE
     1 X1A         1 TEMP              0 ****  ****    0 ROOT
