@<TRIPOS>MOLECULE
X1B
   45    47     1     0     0
SMALL
No Charge or Current Charge


@<TRIPOS>ATOM
      1 C12          2.8800    27.0650    18.8110 ca         1 X1B      -0.189500
      2 C4           2.3550    28.4070    16.8570 ca         1 X1B      -0.189500
      3 C5           1.5320    27.3770    16.3680 ca         1 X1B      -0.052000
      4 C7           1.3840    26.1760    17.0920 ca         1 X1B      -0.072800
      5 C8           0.4900    25.1080    16.5480 ce         1 X1B      -0.104200
      6 CA2          0.5370    23.7330    16.6710 cd         1 X1B       0.033400
      7 C10          4.5560    18.3260    20.9080 cc         1 X1B       0.369400
      8 C2          -0.4440    22.8090    16.0700 c          1 X1B       0.537200
      9 C1           1.2040    21.7890    17.2330 cc         1 X1B       0.521900
     10 CA1          2.0250    20.6270    17.8330 c3         1 X1B       0.144200
     11 C21          3.0950    19.7260    19.9840 cc         1 X1B      -0.182300
     12 C23          2.4610    18.6220    20.5000 cd         1 X1B       0.220900
     13 C11          3.0290    28.2500    18.0750 ca         1 X1B       0.129100
     14 C6           2.0580    26.0330    18.3230 ca         1 X1B      -0.052000
     15 O4           3.8220    29.2530    18.5430 oh         1 X1B      -0.542100
     16 N11          3.3710    17.7550    21.0690 nd         1 X1B      -0.674000
     17 N3           0.0580    21.5960    16.4710 n          1 X1B      -0.305300
     18 N2           1.5450    23.0810    17.3770 nd         1 X1B      -0.663300
     19 C20          2.4870    20.9230    19.2850 c3         1 X1B       0.001900
     20 N22          4.4380    19.5340    20.2520 na         1 X1B      -0.168500
     21 O2          -1.4430    23.0330    15.3970 o          1 X1B      -0.520000
     22 N1           3.1940    20.1820    16.9930 n8         1 X1B      -1.003200
     23 C3          -1.6080    19.8250    17.2340 c          1 X1B       0.709000
     24 O3          -2.7300    19.4970    16.8760 o          1 X1B      -0.713000
     25 H1           3.3920    26.9380    19.7620 ha         1 X1B       0.111000
     26 H19          2.4670    29.3270    16.2890 ha         1 X1B       0.111000
     27 H3           1.0140    27.5100    15.4200 ha         1 X1B       0.131500
     28 H4          -0.3330    25.4780    15.9340 ha         1 X1B       0.183000
     29 H5           5.5110    17.9310    21.2340 h5         1 X1B       0.041100
     30 HA1          1.3470    19.7670    17.9140 h1         1 X1B       0.083700
     31 HA31         0.1500    19.5190    16.0270 h1         1 X1B       0.045200
     32 HA32        -1.1440    20.3960    15.2050 h1         1 X1B       0.045200
     33 H9           6.5050    19.9710    20.1740 h1         1 X1B       0.049033
     34 H10          5.5330    20.6610    18.8420 h1         1 X1B       0.049033
     35 H11          5.4420    21.3750    20.4810 h1         1 X1B       0.049033
     36 H12          1.3990    18.4060    20.4910 h4         1 X1B       0.047100
     37 H13          1.9380    25.1290    18.9150 ha         1 X1B       0.131500
     38 H14          4.2070    28.9690    19.4000 ho         1 X1B       0.459000
     39 H15          3.1880    21.7660    19.2770 hc         1 X1B       0.073700
     40 H16          1.6170    21.2640    19.8620 hc         1 X1B       0.073700
     41 H            3.6690    19.4100    17.4760 hn         1 X1B       0.399500
     42 H2           2.8520    19.7570    16.1230 hn         1 X1B       0.399500
     43 OXT         -1.2460    19.8330    18.4020 o          1 X1B      -0.713000
     44 CA3         -0.6080    20.3010    16.1570 c3         1 X1B      -0.064000
     45 C22          5.5480    20.4400    19.9160 c3         1 X1B       0.060900
@<TRIPOS>BOND
     1     1    13 ar  
     2     1    14 ar  
     3     1    25 1   
     4     2     3 ar  
     5     2    13 ar  
     6     2    26 1   
     7     3     4 ar  
     8     3    27 1   
     9     4     5 1   
    10     4    14 ar  
    11     5     6 2   
    12     5    28 1   
    13     6     8 1   
    14     6    18 1   
    15     7    16 2   
    16     7    20 1   
    17     7    29 1   
    18     8    17 1   
    19     8    21 2   
    20     9    10 1   
    21     9    17 1   
    22     9    18 2   
    23    10    19 1   
    24    10    22 1   
    25    10    30 1   
    26    11    12 2   
    27    11    19 1   
    28    11    20 1   
    29    12    16 1   
    30    12    36 1   
    31    13    15 1   
    32    14    37 1   
    33    15    38 1   
    34    17    44 1   
    35    19    39 1   
    36    19    40 1   
    37    20    45 1   
    38    22    41 1   
    39    22    42 1   
    40    23    24 1   
    41    23    43 1   
    42    23    44 1   
    43    31    44 1   
    44    32    44 1   
    45    33    45 1   
    46    34    45 1   
    47    35    45 1   
@<TRIPOS>SUBSTRUCTURE
     1 X1B         1 TEMP              0 ****  ****    0 ROOT
