@<TRIPOS>MOLECULE
X1B
   45    47     1     0     0
SMALL
abcg2


@<TRIPOS>ATOM
      1 C12          3.4760    26.7240    18.3290 ca         1 X1B      -0.189500
      2 C4           2.1020    28.3940    17.2650 ca         1 X1B      -0.189500
      3 C5           1.2680    27.3950    16.8070 ca         1 X1B      -0.052000
      4 C7           1.5060    26.0430    17.0930 ca         1 X1B      -0.072800
      5 C8           0.5850    25.0580    16.5690 ce         1 X1B      -0.104200
      6 CA2          0.5910    23.7170    16.7040 cd         1 X1B       0.033400
      7 C10          4.5790    18.5160    20.9350 cc         1 X1B       0.369400
      8 C2          -0.4220    22.8390    16.0760 c          1 X1B       0.537200
      9 C1           1.1140    21.7050    17.2200 cc         1 X1B       0.521900
     10 CA1          1.8410    20.5060    17.7540 c3         1 X1B       0.144200
     11 C21          3.2280    19.6860    19.6650 cc         1 X1B      -0.182300
     12 C23          2.8880    18.3580    19.6620 cd         1 X1B       0.220900
     13 C11          3.2190    28.0650    18.0330 ca         1 X1B       0.129100
     14 C6           2.6340    25.7330    17.8660 ca         1 X1B      -0.052000
     15 O4           4.0050    29.0660    18.4560 oh         1 X1B      -0.542100
     16 N11          3.7360    17.6400    20.4560 nd         1 X1B      -0.674000
     17 N3           0.0090    21.5750    16.4090 n          1 X1B      -0.305300
     18 N2           1.4920    22.9240    17.4020 nd         1 X1B      -0.663300
     19 C20          2.6220    20.8800    19.0100 c3         1 X1B       0.001900
     20 N22          4.3200    19.7650    20.4900 na         1 X1B      -0.168500
     21 O2          -1.4070    23.1130    15.4180 o          1 X1B      -0.520000
     22 N1           2.7580    20.0400    16.7160 n8         1 X1B      -1.003200
     23 C3          -1.5830    19.9560    17.4610 c          1 X1B       0.709000
     24 O3          -2.2970    18.9540    17.2900 o          1 X1B      -0.713000
     25 H1           4.3420    26.4570    18.9250 ha         1 X1B       0.111000
     26 H19          1.8970    29.4310    17.0300 ha         1 X1B       0.111000
     27 H3           0.4050    27.6660    16.2100 ha         1 X1B       0.131500
     28 H4          -0.2290    25.4580    15.9730 ha         1 X1B       0.183000
     29 H5           5.3980    18.3110    21.6080 h5         1 X1B       0.041100
     30 HA1          1.0880    19.7580    18.0300 h1         1 X1B       0.083700
     31 HA31        -0.1270    19.5600    15.8900 h1         1 X1B       0.045200
     32 HA32        -1.4540    20.5680    15.3780 h1         1 X1B       0.045200
     33 H9           5.8660    20.6950    21.5060 h1         1 X1B       0.049033
     34 H10          5.4900    21.4140    19.9360 h1         1 X1B       0.049033
     35 H11          4.4170    21.6880    21.3190 h1         1 X1B       0.049033
     36 H12          2.0750    17.8880    19.1280 h4         1 X1B       0.047100
     37 H13          2.8530    24.7020    18.1050 ha         1 X1B       0.131500
     38 H14          4.7450    28.7270    18.9730 ho         1 X1B       0.459000
     39 H15          3.3960    21.6020    18.7410 hc         1 X1B       0.073700
     40 H16          1.9540    21.3900    19.7100 hc         1 X1B       0.073700
     41 H            3.2750    19.2450    17.0740 hn         1 X1B       0.399500
     42 H2           2.2350    19.6840    15.9240 hn         1 X1B       0.399500
     43 OXT         -1.4310    20.6380    18.4880 o          1 X1B      -0.713000
     44 CA3         -0.7730    20.3810    16.2090 c3         1 X1B      -0.064000
     45 C22          5.0590    20.9590    20.8270 c3         1 X1B       0.060900
@<TRIPOS>BOND
     1     1    13 ar  
     2     1    14 ar  
     3     1    25 1   
     4     2     3 ar  
     5     2    13 ar  
     6     2    26 1   
     7     3     4 ar  
     8     3    27 1   
     9     4     5 1   
    10     4    14 ar  
    11     5     6 2   
    12     5    28 1   
    13     6     8 1   
    14     6    18 1   
    15     7    16 2   
    16     7    20 1   
    17     7    29 1   
    18     8    17 1   
    19     8    21 2   
    20     9    10 1   
    21     9    17 1   
    22     9    18 2   
    23    10    19 1   
    24    10    22 1   
    25    10    30 1   
    26    11    12 2   
    27    11    19 1   
    28    11    20 1   
    29    12    16 1   
    30    12    36 1   
    31    13    15 1   
    32    14    37 1   
    33    15    38 1   
    34    17    44 1   
    35    19    39 1   
    36    19    40 1   
    37    20    45 1   
    38    22    41 1   
    39    22    42 1   
    40    23    24 1   
    41    23    43 1   
    42    23    44 1   
    43    31    44 1   
    44    32    44 1   
    45    33    45 1   
    46    34    45 1   
    47    35    45 1   
@<TRIPOS>SUBSTRUCTURE
     1 X1B         1 TEMP              0 ****  ****    0 ROOT
