@<TRIPOS>MOLECULE
X1D
   61    64     1     0     0
SMALL
abcg2


@<TRIPOS>ATOM
      1 F1          11.1880    79.4030    -1.1740 f          1 X1D      -0.096167
      2 F2          11.6430    80.6020     0.5680 f          1 X1D      -0.096167
      3 C1          12.2600    72.8020    -2.5840 ca         1 X1D      -0.316500
      4 C2          11.8060    72.1150    -3.7080 ca         1 X1D      -0.014500
      5 O1          11.5520    70.7940    -1.0620 o          1 X1D      -0.535500
      6 C3          12.0640    72.6390    -4.9680 ca         1 X1D      -0.130000
      7 C4          12.7620    73.8350    -5.0980 ca         1 X1D      -0.054000
      8 C5          13.2100    74.5140    -3.9670 ca         1 X1D      -0.130000
      9 C6          12.9590    74.0020    -2.7010 ca         1 X1D      -0.014500
     10 C7           9.2110    72.5070    -1.3370 c3         1 X1D       0.257100
     11 O2          12.8360    72.6690    -0.0400 o          1 X1D      -0.535500
     12 C8           7.9600    73.0340    -0.6880 ca         1 X1D      -0.115300
     13 C9           7.6960    72.7920     0.6590 ca         1 X1D      -0.072000
     14 C10          6.5790    73.3400     1.2720 ca         1 X1D      -0.135000
     15 C11          5.7100    74.1300     0.5290 ca         1 X1D       0.122100
     16 C12          4.2790    75.9720     1.0140 ca         1 X1D       0.115100
     17 C13          2.9320    76.3100     1.0730 ca         1 X1D      -0.142500
     18 C14          2.5580    77.6460     0.9840 ca         1 X1D      -0.085000
     19 C15          3.5210    78.6390     0.8310 ca         1 X1D      -0.130000
     20 C16          4.8660    78.2870     0.7780 ca         1 X1D      -0.085000
     21 C17          5.2550    76.9550     0.8730 ca         1 X1D      -0.142500
     22 C18          5.9360    74.3540    -0.8240 ca         1 X1D      -0.135000
     23 C19          7.0660    73.8110    -1.4200 ca         1 X1D      -0.072000
     24 C20         10.4900    74.3540    -0.2510 ca         1 X1D       0.267000
     25 O3           4.5930    74.6350     1.1660 os         1 X1D      -0.260200
     26 C21         10.9280    74.7210     1.0150 ca         1 X1D      -0.097000
     27 C22         10.9630    76.0580     1.3800 ca         1 X1D      -0.070500
     28 C23         10.5290    77.0470     0.4990 ca         1 X1D      -0.147300
     29 C24         10.5270    78.5070     0.9610 c3         1 X1D       0.120300
     30 C25         11.5350    79.3420     0.1210 c3         1 X1D       0.293000
     31 C26          9.0840    79.1020     0.8890 c3         1 X1D       0.293000
     32 C27         10.0990    76.6720    -0.7750 ca         1 X1D      -0.070500
     33 C28         10.0920    75.3370    -1.1510 ca         1 X1D      -0.097000
     34 O4          10.9790    78.6860     2.2760 oh         1 X1D      -0.619000
     35 F3          12.7530    78.7850     0.1930 f          1 X1D      -0.096167
     36 F4           8.2760    78.3540     1.6640 f          1 X1D      -0.096167
     37 F5           8.5620    79.1180    -0.3470 f          1 X1D      -0.096167
     38 F6           9.0380    80.3560     1.3590 f          1 X1D      -0.096167
     39 S1          11.8430    72.2040    -0.9740 sy         1 X1D       1.186600
     40 H1          11.2690    71.1840    -3.5950 ha         1 X1D       0.136000
     41 H2          11.7200    72.1100    -5.8480 ha         1 X1D       0.122500
     42 H3          12.9610    74.2390    -6.0820 ha         1 X1D       0.119000
     43 H4          13.7560    75.4430    -4.0710 ha         1 X1D       0.122500
     44 H5          13.3030    74.5200    -1.8180 ha         1 X1D       0.136000
     45 H6           9.2510    72.8290    -2.3810 h1         1 X1D       0.065200
     46 H7           9.2320    71.4200    -1.3210 h1         1 X1D       0.065200
     47 H8           8.3870    72.1950     1.2420 ha         1 X1D       0.119500
     48 H9           6.3790    73.1740     2.3220 ha         1 X1D       0.132500
     49 H10          2.1940    75.5260     1.1860 ha         1 X1D       0.127500
     50 H11          1.5080    77.9080     1.0270 ha         1 X1D       0.116000
     51 H12          3.2260    79.6780     0.7560 ha         1 X1D       0.117000
     52 H13          5.6250    79.0520     0.6660 ha         1 X1D       0.116000
     53 H14          6.3010    76.6860     0.8360 ha         1 X1D       0.127500
     54 H15          5.2500    74.9650    -1.3960 ha         1 X1D       0.132500
     55 H16          7.2630    74.0090    -2.4660 ha         1 X1D       0.119500
     56 H17         11.2360    73.9580     1.7150 ha         1 X1D       0.136000
     57 H18         11.3240    76.3160     2.3640 ha         1 X1D       0.131500
     58 H19          9.7700    77.4090    -1.4910 ha         1 X1D       0.131500
     59 H20          9.7650    75.0690    -2.1450 ha         1 X1D       0.136000
     60 H21         10.4590    78.1460     2.8870 ho         1 X1D       0.479000
     61 N1          10.4130    72.9630    -0.5890 nh         1 X1D      -0.760300
@<TRIPOS>BOND
     1     1    30 1   
     2     2    30 1   
     3     3     4 ar  
     4     3     9 ar  
     5     3    39 1   
     6     4     6 ar  
     7     4    40 1   
     8     5    39 2   
     9     6     7 ar  
    10     6    41 1   
    11     7     8 ar  
    12     7    42 1   
    13     8     9 ar  
    14     8    43 1   
    15     9    44 1   
    16    10    12 1   
    17    10    45 1   
    18    10    46 1   
    19    10    61 1   
    20    11    39 2   
    21    12    13 ar  
    22    12    23 ar  
    23    13    14 ar  
    24    13    47 1   
    25    14    15 ar  
    26    14    48 1   
    27    15    22 ar  
    28    15    25 1   
    29    16    17 ar  
    30    16    21 ar  
    31    16    25 1   
    32    17    18 ar  
    33    17    49 1   
    34    18    19 ar  
    35    18    50 1   
    36    19    20 ar  
    37    19    51 1   
    38    20    21 ar  
    39    20    52 1   
    40    21    53 1   
    41    22    23 ar  
    42    22    54 1   
    43    23    55 1   
    44    24    26 ar  
    45    24    33 ar  
    46    24    61 1   
    47    26    27 ar  
    48    26    56 1   
    49    27    28 ar  
    50    27    57 1   
    51    28    29 1   
    52    28    32 ar  
    53    29    30 1   
    54    29    31 1   
    55    29    34 1   
    56    30    35 1   
    57    31    36 1   
    58    31    37 1   
    59    31    38 1   
    60    32    33 ar  
    61    32    58 1   
    62    33    59 1   
    63    34    60 1   
    64    39    61 1   
@<TRIPOS>SUBSTRUCTURE
     1 X1D         1 TEMP              0 ****  ****    0 ROOT
