@<TRIPOS>MOLECULE
X1D
   61    64     1     0     0
SMALL
No Charge or Current Charge


@<TRIPOS>ATOM
      1 F1          11.3040    78.9920    -1.3350 f          1 X1D      -0.096167
      2 F2          11.7680    80.3550     0.3050 f          1 X1D      -0.096167
      3 C1          12.0930    73.1600    -2.6100 ca         1 X1D      -0.316500
      4 C2          11.4220    72.9290    -3.8290 ca         1 X1D      -0.014500
      5 O1          11.5440    70.6870    -1.7560 o          1 X1D      -0.535500
      6 C3          11.5610    73.8410    -4.8890 ca         1 X1D      -0.130000
      7 C4          12.3630    74.9850    -4.7390 ca         1 X1D      -0.054000
      8 C5          13.0300    75.2180    -3.5240 ca         1 X1D      -0.130000
      9 C6          12.8980    74.3100    -2.4600 ca         1 X1D      -0.014500
     10 C7           9.1950    71.9530    -0.7830 c3         1 X1D       0.257100
     11 O2          12.9640    72.2120    -0.2630 o          1 X1D      -0.535500
     12 C8           7.9670    72.6690    -0.2280 ca         1 X1D      -0.115300
     13 C9           7.8000    72.8110     1.1640 ca         1 X1D      -0.072000
     14 C10          6.7080    73.5310     1.6770 ca         1 X1D      -0.135000
     15 C11          5.7810    74.1180     0.8010 ca         1 X1D       0.122100
     16 C12          4.4110    76.1060     0.8600 ca         1 X1D       0.115100
     17 C13          3.0840    76.5480     0.9840 ca         1 X1D      -0.142500
     18 C14          2.7220    77.8330     0.5410 ca         1 X1D      -0.085000
     19 C15          3.6940    78.6800    -0.0220 ca         1 X1D      -0.130000
     20 C16          5.0250    78.2460    -0.1380 ca         1 X1D      -0.085000
     21 C17          5.3860    76.9610     0.3050 ca         1 X1D      -0.142500
     22 C18          5.9240    73.9540    -0.5890 ca         1 X1D      -0.135000
     23 C19          7.0160    73.2340    -1.1020 ca         1 X1D      -0.072000
     24 C20         10.5030    74.0290    -0.2010 ca         1 X1D       0.267000
     25 O3           4.7360    74.8470     1.3180 os         1 X1D      -0.260200
     26 C21         11.1380    74.4470     0.9770 ca         1 X1D      -0.097000
     27 C22         11.1740    75.8060     1.3320 ca         1 X1D      -0.070500
     28 C23         10.5520    76.7920     0.5210 ca         1 X1D      -0.147300
     29 C24         10.5960    78.3060     0.8960 c3         1 X1D       0.120300
     30 C25         11.6420    79.0470    -0.0250 c3         1 X1D       0.293000
     31 C26          9.1620    78.9820     0.8320 c3         1 X1D       0.293000
     32 C27          9.9280    76.3550    -0.6730 ca         1 X1D      -0.070500
     33 C28          9.9040    74.9950    -1.0230 ca         1 X1D      -0.097000
     34 O4          11.0520    78.4250     2.2690 oh         1 X1D      -0.619000
     35 F3          12.8700    78.4850     0.0910 f          1 X1D      -0.096167
     36 F4           8.2580    78.2390     1.5140 f          1 X1D      -0.096167
     37 F5           8.6950    79.1300    -0.4280 f          1 X1D      -0.096167
     38 F6           9.1670    80.2140     1.3960 f          1 X1D      -0.096167
     39 S1          11.8810    72.0170    -1.2330 sy         1 X1D       1.186600
     40 H1          10.7890    72.0520    -3.9560 ha         1 X1D       0.136000
     41 H2          11.0420    73.6620    -5.8290 ha         1 X1D       0.122500
     42 H3          12.4670    75.6900    -5.5610 ha         1 X1D       0.119000
     43 H4          13.6470    76.1050    -3.4050 ha         1 X1D       0.122500
     44 H5          13.4110    74.5090    -1.5200 ha         1 X1D       0.136000
     45 H6           9.0550    71.7940    -1.8610 h1         1 X1D       0.065200
     46 H7           9.2440    70.9600    -0.3150 h1         1 X1D       0.065200
     47 H8           8.5320    72.3820     1.8460 ha         1 X1D       0.119500
     48 H9           6.5900    73.6530     2.7510 ha         1 X1D       0.132500
     49 H10          2.3340    75.8940     1.4220 ha         1 X1D       0.127500
     50 H11          1.6930    78.1720     0.6350 ha         1 X1D       0.116000
     51 H12          3.4150    79.6750    -0.3640 ha         1 X1D       0.117000
     52 H13          5.7770    78.9050    -0.5680 ha         1 X1D       0.116000
     53 H14          6.4210    76.6380     0.2200 ha         1 X1D       0.127500
     54 H15          5.2000    74.3960    -1.2680 ha         1 X1D       0.132500
     55 H16          7.1320    73.1320    -2.1790 ha         1 X1D       0.119500
     56 H17         11.6090    73.7110     1.6210 ha         1 X1D       0.136000
     57 H18         11.7020    76.0720     2.2440 ha         1 X1D       0.131500
     58 H19          9.4680    77.0580    -1.3590 ha         1 X1D       0.131500
     59 H20          9.4260    74.6890    -1.9490 ha         1 X1D       0.136000
     60 H21         10.3950    77.9670     2.8370 ho         1 X1D       0.479000
     61 N1          10.4650    72.6660    -0.5470 nh         1 X1D      -0.760300
@<TRIPOS>BOND
     1     1    30 1   
     2     2    30 1   
     3     3     4 ar  
     4     3     9 ar  
     5     3    39 1   
     6     4     6 ar  
     7     4    40 1   
     8     5    39 2   
     9     6     7 ar  
    10     6    41 1   
    11     7     8 ar  
    12     7    42 1   
    13     8     9 ar  
    14     8    43 1   
    15     9    44 1   
    16    10    12 1   
    17    10    45 1   
    18    10    46 1   
    19    10    61 1   
    20    11    39 2   
    21    12    13 ar  
    22    12    23 ar  
    23    13    14 ar  
    24    13    47 1   
    25    14    15 ar  
    26    14    48 1   
    27    15    22 ar  
    28    15    25 1   
    29    16    17 ar  
    30    16    21 ar  
    31    16    25 1   
    32    17    18 ar  
    33    17    49 1   
    34    18    19 ar  
    35    18    50 1   
    36    19    20 ar  
    37    19    51 1   
    38    20    21 ar  
    39    20    52 1   
    40    21    53 1   
    41    22    23 ar  
    42    22    54 1   
    43    23    55 1   
    44    24    26 ar  
    45    24    33 ar  
    46    24    61 1   
    47    26    27 ar  
    48    26    56 1   
    49    27    28 ar  
    50    27    57 1   
    51    28    29 1   
    52    28    32 ar  
    53    29    30 1   
    54    29    31 1   
    55    29    34 1   
    56    30    35 1   
    57    31    36 1   
    58    31    37 1   
    59    31    38 1   
    60    32    33 ar  
    61    32    58 1   
    62    33    59 1   
    63    34    60 1   
    64    39    61 1   
@<TRIPOS>SUBSTRUCTURE
     1 X1D         1 TEMP              0 ****  ****    0 ROOT
