@<TRIPOS>MOLECULE
X1E
   25    26     1     0     0
SMALL
No Charge or Current Charge


@<TRIPOS>ATOM
      1 O13          3.0420     1.4290    -0.2460 o          1 X1E      -0.707500
      2 C11          2.0050     1.2090     0.3640 c          1 X1E       0.733000
      3 O12          1.8040     1.6770     1.4780 o          1 X1E      -0.707500
      4 C3           0.8720     0.4200    -0.3630 c5         1 X1E      -0.045300
      5 C2           1.0620    -1.1330    -0.1970 c5         1 X1E       0.153000
      6 C10          1.6680    -1.5900     1.1590 c3         1 X1E      -0.075100
      7 C9           1.8750    -1.7650    -1.3510 c3         1 X1E      -0.075100
      8 N4          -0.4910     0.7280     0.1050 nj         1 X1E      -0.305800
      9 C7          -1.5590     1.2960    -0.5950 c          1 X1E       0.506000
     10 O8          -1.6220     2.0860    -1.5290 o          1 X1E      -0.522000
     11 C6          -2.5950     0.4680     0.2680 cy         1 X1E       0.069500
     12 N14         -3.7210    -0.2960    -0.3600 n8         1 X1E      -0.992200
     13 C5          -1.3060    -0.3350     0.7090 cy         1 X1E       0.220700
     14 S1          -0.6840    -1.7710    -0.2840 ss         1 X1E      -0.569000
     15 H3           0.9130     0.6960    -1.4240 h1         1 X1E       0.059700
     16 H101         1.1330    -1.1550     2.0110 hc         1 X1E       0.043033
     17 H102         1.6200    -2.6800     1.2640 hc         1 X1E       0.043033
     18 H103         2.7220    -1.3010     1.2460 hc         1 X1E       0.043033
     19 H91C         2.9080    -1.3990    -1.3550 hc         1 X1E       0.043033
     20 H92C         1.9080    -2.8580    -1.2640 hc         1 X1E       0.043033
     21 H93C         1.4330    -1.5250    -2.3250 hc         1 X1E       0.043033
     22 H5          -1.1540    -0.4980     1.7820 h2         1 X1E       0.100700
     23 H6          -2.9750     1.1040     1.0780 h1         1 X1E       0.078700
     24 H141        -4.2550     0.3150    -0.9930 hn         1 X1E       0.411000
     25 H142        -3.3320    -1.0110    -0.9900 hn         1 X1E       0.411000
@<TRIPOS>BOND
     1     1     2 1   
     2     2     3 1   
     3     2     4 1   
     4     4     5 1   
     5     4     8 1   
     6     4    15 1   
     7     5     6 1   
     8     5     7 1   
     9     5    14 1   
    10     6    16 1   
    11     6    17 1   
    12     6    18 1   
    13     7    19 1   
    14     7    20 1   
    15     7    21 1   
    16     8     9 1   
    17     8    13 1   
    18     9    10 2   
    19     9    11 1   
    20    11    12 1   
    21    11    13 1   
    22    11    23 1   
    23    12    24 1   
    24    12    25 1   
    25    13    14 1   
    26    13    22 1   
@<TRIPOS>SUBSTRUCTURE
     1 X1E         1 TEMP              0 ****  ****    0 ROOT
