@<TRIPOS>MOLECULE
X1E
   25    26     1     0     0
SMALL
abcg2


@<TRIPOS>ATOM
      1 O13          3.0920     1.1000    -0.3470 o          1 X1E      -0.707500
      2 C11          2.0180     1.1950     0.2800 c          1 X1E       0.733000
      3 O12          1.8000     1.8310     1.3220 o          1 X1E      -0.707500
      4 C3           0.8410     0.4060    -0.3370 c5         1 X1E      -0.045300
      5 C2           1.0100    -1.1340    -0.1660 c5         1 X1E       0.153000
      6 C10          1.6450    -1.5100     1.1700 c3         1 X1E      -0.075100
      7 C9           1.7830    -1.7500    -1.3210 c3         1 X1E      -0.075100
      8 N4          -0.4610     0.7320     0.2140 nj         1 X1E      -0.305800
      9 C7          -1.5040     1.2920    -0.4690 c          1 X1E       0.506000
     10 O8          -1.5280     2.1230    -1.3430 o          1 X1E      -0.522000
     11 C6          -2.5330     0.3760     0.2230 cy         1 X1E       0.069500
     12 N14         -3.4750    -0.3760    -0.5460 n8         1 X1E      -0.992200
     13 C5          -1.2740    -0.3510     0.7460 cy         1 X1E       0.220700
     14 S1          -0.7240    -1.7940    -0.1990 ss         1 X1E      -0.569000
     15 H3           0.8100     0.6260    -1.4100 h1         1 X1E       0.059700
     16 H101         1.1330    -1.0520     2.0160 hc         1 X1E       0.043033
     17 H102         1.6210    -2.5910     1.3050 hc         1 X1E       0.043033
     18 H103         2.6890    -1.1950     1.2000 hc         1 X1E       0.043033
     19 H91C         2.7950    -1.3460    -1.3350 hc         1 X1E       0.043033
     20 H92C         1.8530    -2.8330    -1.2140 hc         1 X1E       0.043033
     21 H93C         1.3140    -1.5270    -2.2790 hc         1 X1E       0.043033
     22 H5          -1.2020    -0.5160     1.8220 h2         1 X1E       0.100700
     23 H6          -3.0540     0.8890     1.0330 h1         1 X1E       0.078700
     24 H141        -4.2950     0.1810    -0.7420 hn         1 X1E       0.411000
     25 H142        -3.0860    -0.6640    -1.4340 hn         1 X1E       0.411000
@<TRIPOS>BOND
     1     1     2 1   
     2     2     3 1   
     3     2     4 1   
     4     4     5 1   
     5     4     8 1   
     6     4    15 1   
     7     5     6 1   
     8     5     7 1   
     9     5    14 1   
    10     6    16 1   
    11     6    17 1   
    12     6    18 1   
    13     7    19 1   
    14     7    20 1   
    15     7    21 1   
    16     8     9 1   
    17     8    13 1   
    18     9    10 2   
    19     9    11 1   
    20    11    12 1   
    21    11    13 1   
    22    11    23 1   
    23    12    24 1   
    24    12    25 1   
    25    13    14 1   
    26    13    22 1   
@<TRIPOS>SUBSTRUCTURE
     1 X1E         1 TEMP              0 ****  ****    0 ROOT
