@<TRIPOS>MOLECULE
X1G
   34    35     1     0     0
SMALL
No Charge or Current Charge


@<TRIPOS>ATOM
      1 C4           2.5410    44.9480    13.1690 ca         1 X1G      -0.095000
      2 C5           2.0290    43.7350    13.6430 ca         1 X1G       0.055100
      3 C6           2.7450    42.9360    14.4890 ca         1 X1G       0.049100
      4 C11          4.0850    48.0900    17.9390 c3         1 X1G      -0.053700
      5 C7           0.7850    41.9740    14.1360 c5         1 X1G       0.373600
      6 C9           5.7170    47.0690    16.2460 c          1 X1G       0.599100
      7 C10          5.5420    47.6270    17.6630 c3         1 X1G      -0.155400
      8 C12          3.0640    46.9350    17.8070 c3         1 X1G      -0.091100
      9 C13          3.9710    48.7790    19.3180 c3         1 X1G      -0.091100
     10 N1           5.8790    45.7050    16.1760 ns         1 X1G      -0.511900
     11 C3           3.8310    45.3340    13.5920 ca         1 X1G      -0.087000
     12 C1           4.0280    43.2890    14.9260 ca         1 X1G      -0.090000
     13 C2           4.5800    44.5080    14.4690 ca         1 X1G      -0.100300
     14 O1           0.8160    43.2090    13.3360 os         1 X1G      -0.344100
     15 O2           2.0750    41.8050    14.8250 os         1 X1G      -0.347100
     16 O3           5.7360    47.7840    15.2550 o          1 X1G      -0.598100
     17 H3           1.9600    45.5730    12.4960 ha         1 X1G       0.135000
     18 H11          3.8260    48.8430    17.1820 hc         1 X1G       0.069700
     19 H4          -0.0140    42.0490    14.8820 h2         1 X1G       0.063700
     20 H5           0.6060    41.1150    13.4780 h2         1 X1G       0.063700
     21 H6           6.5890    44.0560    15.1050 h1         1 X1G       0.055200
     22 H7           6.4490    45.5470    14.1560 h1         1 X1G       0.055200
     23 H9           5.8130    46.8650    18.4040 hc         1 X1G       0.055700
     24 H10          6.2070    48.4920    17.7720 hc         1 X1G       0.055700
     25 H13          2.0470    47.2930    18.0120 hc         1 X1G       0.034867
     26 H14          3.0680    46.5140    16.7950 hc         1 X1G       0.034867
     27 H12          3.2910    46.1290    18.5160 hc         1 X1G       0.034867
     28 H17          2.9530    49.1510    19.4830 hc         1 X1G       0.034867
     29 H15          4.2160    48.0780    20.1260 hc         1 X1G       0.034867
     30 H16          4.6570    49.6320    19.3840 hc         1 X1G       0.034867
     31 H8           5.8570    45.1970    17.0520 hn         1 X1G       0.313500
     32 H2           4.2490    46.2760    13.2430 ha         1 X1G       0.123000
     33 H1           4.5780    42.6390    15.6020 ha         1 X1G       0.128000
     34 C8           5.9620    44.9410    14.9330 c3         1 X1G       0.159300
@<TRIPOS>BOND
     1     1     2 ar  
     2     1    11 ar  
     3     1    17 1   
     4     2     3 ar  
     5     2    14 1   
     6     3    12 ar  
     7     3    15 1   
     8     4     7 1   
     9     4     8 1   
    10     4     9 1   
    11     4    18 1   
    12     5    14 1   
    13     5    15 1   
    14     5    19 1   
    15     5    20 1   
    16     6     7 1   
    17     6    10 1   
    18     6    16 2   
    19     7    23 1   
    20     7    24 1   
    21     8    25 1   
    22     8    26 1   
    23     8    27 1   
    24     9    28 1   
    25     9    29 1   
    26     9    30 1   
    27    10    31 1   
    28    10    34 1   
    29    11    13 ar  
    30    11    32 1   
    31    12    13 ar  
    32    12    33 1   
    33    13    34 1   
    34    21    34 1   
    35    22    34 1   
@<TRIPOS>SUBSTRUCTURE
     1 X1G         1 TEMP              0 ****  ****    0 ROOT
