@<TRIPOS>MOLECULE
X1G
   34    35     1     0     0
SMALL
bcc


@<TRIPOS>ATOM
      1 C4           3.0230    44.3970    12.4930 ca         1 X1G      -0.113000
      2 C5           2.2620    43.6680    13.3690 ca         1 X1G       0.055100
      3 C6           2.6790    43.4310    14.6710 ca         1 X1G       0.049100
      4 C11          3.9080    47.8180    18.1150 c3         1 X1G      -0.053700
      5 C7           0.6300    42.6110    14.4370 c5         1 X1G       0.327200
      6 C9           5.3460    47.0540    16.1840 c          1 X1G       0.666100
      7 C10          5.3310    47.5960    17.5950 c3         1 X1G      -0.155400
      8 C12          3.1230    46.5100    18.1640 c3         1 X1G      -0.091100
      9 C13          3.9530    48.4740    19.4900 c3         1 X1G      -0.091100
     10 N1           5.9440    45.8610    16.0210 ns         1 X1G      -0.578900
     11 C3           4.2410    44.8940    12.9770 ca         1 X1G      -0.105000
     12 C1           3.8720    43.9050    15.1530 ca         1 X1G      -0.108000
     13 C2           4.6680    44.6580    14.2740 ca         1 X1G      -0.100300
     14 O1           1.0670    43.0610    13.1630 os         1 X1G      -0.320900
     15 O2           1.7510    42.6750    15.3080 os         1 X1G      -0.323900
     16 O3           4.8400    47.6640    15.2510 o          1 X1G      -0.598100
     17 H3           2.7020    44.5880    11.4780 ha         1 X1G       0.153000
     18 H11          3.4010    48.5000    17.4260 hc         1 X1G       0.069700
     19 H4          -0.1680    43.2620    14.8100 h2         1 X1G       0.063700
     20 H5           0.2780    41.5810    14.3640 h2         1 X1G       0.063700
     21 H6           6.7070    44.3620    14.8600 h1         1 X1G       0.055200
     22 H7           6.4210    45.8520    13.9880 h1         1 X1G       0.055200
     23 H9           5.8680    46.9350    18.2810 hc         1 X1G       0.055700
     24 H10          5.8690    48.5480    17.5900 hc         1 X1G       0.055700
     25 H13          2.1140    46.6760    18.5440 hc         1 X1G       0.034867
     26 H14          3.0270    46.0460    17.1800 hc         1 X1G       0.034867
     27 H12          3.6100    45.7890    18.8250 hc         1 X1G       0.034867
     28 H17          2.9470    48.6670    19.8660 hc         1 X1G       0.034867
     29 H15          4.4600    47.8320    20.2130 hc         1 X1G       0.034867
     30 H16          4.4860    49.4260    19.4600 hc         1 X1G       0.034867
     31 H8           6.3300    45.3940    16.8250 hn         1 X1G       0.313500
     32 H2           4.8610    45.4870    12.3160 ha         1 X1G       0.141000
     33 H1           4.1860    43.7080    16.1700 ha         1 X1G       0.146000
     34 C8           6.0020    45.1860    14.7460 c3         1 X1G       0.159300
@<TRIPOS>BOND
     1     1     2 ar  
     2     1    11 ar  
     3     1    17 1   
     4     2     3 ar  
     5     2    14 1   
     6     3    12 ar  
     7     3    15 1   
     8     4     7 1   
     9     4     8 1   
    10     4     9 1   
    11     4    18 1   
    12     5    14 1   
    13     5    15 1   
    14     5    19 1   
    15     5    20 1   
    16     6     7 1   
    17     6    10 1   
    18     6    16 2   
    19     7    23 1   
    20     7    24 1   
    21     8    25 1   
    22     8    26 1   
    23     8    27 1   
    24     9    28 1   
    25     9    29 1   
    26     9    30 1   
    27    10    31 1   
    28    10    34 1   
    29    11    13 ar  
    30    11    32 1   
    31    12    13 ar  
    32    12    33 1   
    33    13    34 1   
    34    21    34 1   
    35    22    34 1   
@<TRIPOS>SUBSTRUCTURE
     1 X1G         1 TEMP              0 ****  ****    0 ROOT
