@<TRIPOS>MOLECULE
X1H
   43    46     1     0     0
SMALL
bcc


@<TRIPOS>ATOM
      1 C22         -4.5420    -3.3130    -1.8930 c3         1 X1H       0.124700
      2 O3          -4.2610    -3.2040    -0.5090 os         1 X1H      -0.313900
      3 C21         -3.1050    -2.6480    -0.1270 ca         1 X1H       0.171100
      4 C20         -2.8830    -2.5710     1.2540 ca         1 X1H      -0.209500
      5 C18         -1.7210    -2.0160     1.7370 ca         1 X1H      -0.036000
      6 C19         -2.1390    -2.1590    -1.0060 ca         1 X1H      -0.209500
      7 C17         -0.9830    -1.5860    -0.5040 ca         1 X1H      -0.036000
      8 C16         -0.7540    -1.5000     0.8660 ca         1 X1H      -0.210600
      9 C15          0.4860    -0.9280     1.4220 c          1 X1H       0.615900
     10 O1           0.8680    -1.2170     2.5430 o          1 X1H      -0.528100
     11 C8           1.3000    -0.0060     0.5910 cc         1 X1H      -0.140400
     12 C11          2.7330    -0.1330     0.4820 ca         1 X1H      -0.082800
     13 C13          3.5990    -1.0880     1.0260 ca         1 X1H      -0.037000
     14 C14          4.9470    -1.0390     0.7430 ca         1 X1H      -0.221000
     15 C12          5.4760    -0.0400    -0.0910 ca         1 X1H       0.150100
     16 O4           6.7890     0.0280    -0.3780 oh         1 X1H      -0.493100
     17 C10          4.6420     0.9150    -0.6500 ca         1 X1H      -0.146000
     18 C9           3.2860     0.8500    -0.3550 ca         1 X1H      -0.004100
     19 S1           2.0660     1.9310    -0.9380 ss         1 X1H      -0.052500
     20 C7           0.8080     1.0550    -0.1120 cd         1 X1H       0.046400
     21 C4          -0.5650     1.5460    -0.2170 ca         1 X1H      -0.083800
     22 C2          -1.3820     1.6520     0.9100 ca         1 X1H      -0.066000
     23 C1          -2.6920     2.0800     0.8060 ca         1 X1H      -0.196000
     24 C3          -3.2170     2.4210    -0.4390 ca         1 X1H       0.152100
     25 O2          -4.4970     2.8270    -0.4910 oh         1 X1H      -0.490100
     26 C5          -2.4080     2.3360    -1.5700 ca         1 X1H      -0.196000
     27 C6          -1.0990     1.9050    -1.4540 ca         1 X1H      -0.066000
     28 H221        -4.5870    -2.3340    -2.3760 h1         1 X1H       0.043033
     29 H222        -3.8040    -3.9310    -2.4090 h1         1 X1H       0.043033
     30 H223        -5.5160    -3.7880    -1.9710 h1         1 X1H       0.043033
     31 H20         -3.6350    -2.9510     1.9350 ha         1 X1H       0.143000
     32 H19         -2.2730    -2.2140    -2.0780 ha         1 X1H       0.143000
     33 H18         -1.5660    -1.9630     2.8060 ha         1 X1H       0.144000
     34 H17         -0.2440    -1.2180    -1.2030 ha         1 X1H       0.144000
     35 H13          3.2250    -1.8690     1.6730 ha         1 X1H       0.151000
     36 H14          5.6080    -1.7830     1.1730 ha         1 X1H       0.134000
     37 H4           7.2670    -0.6890     0.0520 ho         1 X1H       0.428000
     38 H10          5.0420     1.6850    -1.2980 ha         1 X1H       0.155000
     39 H2          -0.9890     1.4130     1.8900 ha         1 X1H       0.140000
     40 H6          -0.4950     1.8230    -2.3490 ha         1 X1H       0.140000
     41 H1          -3.3100     2.1570     1.6920 ha         1 X1H       0.141500
     42 HA          -4.7520     3.0310    -1.3980 ho         1 X1H       0.427000
     43 H5          -2.8010     2.5980    -2.5450 ha         1 X1H       0.141500
@<TRIPOS>BOND
     1     1     2 1   
     2     1    28 1   
     3     1    29 1   
     4     1    30 1   
     5     2     3 1   
     6     3     4 ar  
     7     3     6 ar  
     8     4     5 ar  
     9     4    31 1   
    10     5     8 ar  
    11     5    33 1   
    12     6     7 ar  
    13     6    32 1   
    14     7     8 ar  
    15     7    34 1   
    16     8     9 1   
    17     9    10 2   
    18     9    11 1   
    19    11    12 1   
    20    11    20 2   
    21    12    13 ar  
    22    12    18 ar  
    23    13    14 ar  
    24    13    35 1   
    25    14    15 ar  
    26    14    36 1   
    27    15    16 1   
    28    15    17 ar  
    29    16    37 1   
    30    17    18 ar  
    31    17    38 1   
    32    18    19 1   
    33    19    20 1   
    34    20    21 1   
    35    21    22 ar  
    36    21    27 ar  
    37    22    23 ar  
    38    22    39 1   
    39    23    24 ar  
    40    23    41 1   
    41    24    25 1   
    42    24    26 ar  
    43    25    42 1   
    44    26    27 ar  
    45    26    43 1   
    46    27    40 1   
@<TRIPOS>SUBSTRUCTURE
     1 X1H         1 TEMP              0 ****  ****    0 ROOT
