@<TRIPOS>MOLECULE
X1H
   43    46     1     0     0
SMALL
No Charge or Current Charge


@<TRIPOS>ATOM
      1 C22         -4.8490    -3.2890    -1.8620 c3         1 X1H       0.147900
      2 O3          -4.4800    -3.1370    -0.4800 os         1 X1H      -0.337100
      3 C21         -3.2470    -2.6490    -0.0980 ca         1 X1H       0.171100
      4 C20         -2.9860    -2.5290     1.2740 ca         1 X1H      -0.191500
      5 C18         -1.7500    -2.0360     1.7260 ca         1 X1H      -0.018000
      6 C19         -2.2520    -2.2820    -1.0270 ca         1 X1H      -0.191500
      7 C17         -1.0140    -1.7890    -0.5790 ca         1 X1H      -0.018000
      8 C16         -0.7570    -1.6430     0.8040 ca         1 X1H      -0.210600
      9 C15          0.5630    -1.1050     1.3180 c          1 X1H       0.615900
     10 O1           0.9880    -1.4850     2.4030 o          1 X1H      -0.528100
     11 C8           1.3620    -0.2350     0.4030 cc         1 X1H      -0.140400
     12 C11          2.8220    -0.1760     0.3780 ca         1 X1H      -0.082800
     13 C13          3.7240    -0.9620     1.1270 ca         1 X1H      -0.019000
     14 C14          5.1110    -0.7660     0.9660 ca         1 X1H      -0.203000
     15 C12          5.5900     0.1990     0.0600 ca         1 X1H       0.150100
     16 O4           6.9310     0.3850    -0.0970 oh         1 X1H      -0.532100
     17 C10          4.6860     0.9660    -0.6930 ca         1 X1H      -0.128000
     18 C9           3.3090     0.7580    -0.5170 ca         1 X1H      -0.131000
     19 S1           2.0430     1.6010    -1.4150 ss         1 X1H       0.074400
     20 C7           0.8120     0.7480    -0.4320 cd         1 X1H       0.046400
     21 C4          -0.5500     1.3370    -0.3820 ca         1 X1H      -0.083800
     22 C2          -1.3200     1.3570     0.8040 ca         1 X1H      -0.048000
     23 C1          -2.6060     1.9240     0.8150 ca         1 X1H      -0.178000
     24 C3          -3.1370     2.4920    -0.3490 ca         1 X1H       0.152100
     25 O2          -4.3840     3.0400    -0.3260 oh         1 X1H      -0.529100
     26 C5          -2.3770     2.5050    -1.5270 ca         1 X1H      -0.178000
     27 C6          -1.0900     1.9390    -1.5410 ca         1 X1H      -0.048000
     28 H221        -4.8180    -2.3230    -2.3830 h1         1 X1H       0.043033
     29 H222        -4.1730    -3.9870    -2.3720 h1         1 X1H       0.043033
     30 H223        -5.8690    -3.6850    -1.9420 h1         1 X1H       0.043033
     31 H20         -3.7470    -2.8180     1.9930 ha         1 X1H       0.125000
     32 H19         -2.4160    -2.3740    -2.0960 ha         1 X1H       0.125000
     33 H18         -1.5740    -1.9470     2.7970 ha         1 X1H       0.126000
     34 H17         -0.2580    -1.5320    -1.3170 ha         1 X1H       0.126000
     35 H13          3.3750    -1.7210     1.8210 ha         1 X1H       0.133000
     36 H14          5.8050    -1.3700     1.5450 ha         1 X1H       0.116000
     37 H4           7.4000    -0.2340     0.5030 ho         1 X1H       0.467000
     38 H10          5.0490     1.7030    -1.4040 ha         1 X1H       0.137000
     39 H2          -0.9220     0.9650     1.7350 ha         1 X1H       0.122000
     40 H6          -0.5270     1.9480    -2.4720 ha         1 X1H       0.122000
     41 H1          -3.1870     1.9300     1.7340 ha         1 X1H       0.123500
     42 HA          -4.5850     3.3900    -1.2190 ho         1 X1H       0.466000
     43 H5          -2.7760     2.9490    -2.4360 ha         1 X1H       0.123500
@<TRIPOS>BOND
     1     1     2 1   
     2     1    28 1   
     3     1    29 1   
     4     1    30 1   
     5     2     3 1   
     6     3     4 ar  
     7     3     6 ar  
     8     4     5 ar  
     9     4    31 1   
    10     5     8 ar  
    11     5    33 1   
    12     6     7 ar  
    13     6    32 1   
    14     7     8 ar  
    15     7    34 1   
    16     8     9 1   
    17     9    10 2   
    18     9    11 1   
    19    11    12 1   
    20    11    20 2   
    21    12    13 ar  
    22    12    18 ar  
    23    13    14 ar  
    24    13    35 1   
    25    14    15 ar  
    26    14    36 1   
    27    15    16 1   
    28    15    17 ar  
    29    16    37 1   
    30    17    18 ar  
    31    17    38 1   
    32    18    19 1   
    33    19    20 1   
    34    20    21 1   
    35    21    22 ar  
    36    21    27 ar  
    37    22    23 ar  
    38    22    39 1   
    39    23    24 ar  
    40    23    41 1   
    41    24    25 1   
    42    24    26 ar  
    43    25    42 1   
    44    26    27 ar  
    45    26    43 1   
    46    27    40 1   
@<TRIPOS>SUBSTRUCTURE
     1 X1H         1 TEMP              0 ****  ****    0 ROOT
