@<TRIPOS>MOLECULE
X1J
   25    26     1     0     0
SMALL
No Charge or Current Charge


@<TRIPOS>ATOM
      1 C4          17.9010    62.1460   -11.6810 ca         1 X1J      -0.161000
      2 C5          17.7260    61.9280   -10.3050 ca         1 X1J      -0.055300
      3 C6          18.0330    60.7080    -9.7370 ca         1 X1J      -0.155300
      4 C7          17.2100    62.9120    -9.2880 c5         1 X1J       0.148300
      5 C8          17.7710    60.6890    -8.2540 c5         1 X1J       0.167300
      6 C10         16.9560    61.6660    -5.5730 c3         1 X1J      -0.176100
      7 N1          17.2640    62.0820    -8.0430 n          1 X1J      -0.421800
      8 C3          18.3970    61.1020   -12.4800 ca         1 X1J       0.296000
      9 C1          18.5290    59.6520   -10.5180 ca         1 X1J      -0.047000
     10 C2          18.7100    59.8580   -11.9000 ca         1 X1J      -0.178000
     11 O1          16.4610    63.7350    -6.6820 o          1 X1J      -0.608100
     12 H3          17.6550    63.1100   -12.1190 ha         1 X1J       0.119000
     13 H4          17.8580    63.7960    -9.2180 h1         1 X1J       0.067200
     14 H5          16.1860    63.2330    -9.5210 h1         1 X1J       0.067200
     15 H6          17.0180    59.9350    -7.9900 h1         1 X1J       0.049200
     16 H7          18.6920    60.4980    -7.6870 h1         1 X1J       0.049200
     17 H10         16.6240    62.1580    -4.6520 hc         1 X1J       0.059367
     18 H11         16.3830    60.7530    -5.7680 hc         1 X1J       0.059367
     19 H12         17.9810    61.2900    -5.4780 hc         1 X1J       0.059367
     20 H9          18.4900    62.2260   -14.2190 hn         1 X1J       0.448500
     21 H8          19.0680    60.5900   -14.3750 hn         1 X1J       0.448500
     22 H1          18.7700    58.6920   -10.0650 ha         1 X1J       0.114000
     23 H2          19.0930    59.0490   -12.5160 ha         1 X1J       0.114000
     24 C9          16.8680    62.5860    -6.7930 c          1 X1J       0.606100
     25 N2          18.5770    61.2920   -13.8230 nv         1 X1J      -1.070000
@<TRIPOS>BOND
     1     1     2 ar  
     2     1     8 ar  
     3     1    12 1   
     4     2     3 ar  
     5     2     4 1   
     6     3     5 1   
     7     3     9 ar  
     8     4     7 1   
     9     4    13 1   
    10     4    14 1   
    11     5     7 1   
    12     5    15 1   
    13     5    16 1   
    14     6    17 1   
    15     6    18 1   
    16     6    19 1   
    17     6    24 1   
    18     7    24 1   
    19     8    10 ar  
    20     8    25 1   
    21     9    10 ar  
    22     9    22 1   
    23    10    23 1   
    24    11    24 2   
    25    20    25 1   
    26    21    25 1   
@<TRIPOS>SUBSTRUCTURE
     1 X1J         1 TEMP              0 ****  ****    0 ROOT
