@<TRIPOS>MOLECULE
X1J
   25    26     1     0     0
SMALL
abcg2


@<TRIPOS>ATOM
      1 C4          17.8760    62.1330   -11.6520 ca         1 X1J      -0.161000
      2 C5          17.7090    61.9030   -10.2990 ca         1 X1J      -0.055300
      3 C6          18.0180    60.6820    -9.7250 ca         1 X1J      -0.155300
      4 C7          17.2070    62.8580    -9.2620 c5         1 X1J       0.148300
      5 C8          17.7540    60.7010    -8.2520 c5         1 X1J       0.167300
      6 C10         17.0000    61.6630    -5.6670 c3         1 X1J      -0.176100
      7 N1          17.2670    62.0610    -8.0430 n          1 X1J      -0.421800
      8 C3          18.3670    61.1050   -12.4660 ca         1 X1J       0.296000
      9 C1          18.5080    59.6570   -10.5190 ca         1 X1J      -0.047000
     10 C2          18.6800    59.8690   -11.8780 ca         1 X1J      -0.178000
     11 O1          16.4790    63.7290    -6.7700 o          1 X1J      -0.608100
     12 H3          17.6320    63.0970   -12.0850 ha         1 X1J       0.119000
     13 H4          17.8330    63.7520    -9.1870 h1         1 X1J       0.067200
     14 H5          16.1870    63.1960    -9.4700 h1         1 X1J       0.067200
     15 H6          17.0080    59.9560    -7.9560 h1         1 X1J       0.049200
     16 H7          18.6580    60.5020    -7.6680 h1         1 X1J       0.049200
     17 H10         16.6640    62.1810    -4.7730 hc         1 X1J       0.059367
     18 H11         16.3960    60.7630    -5.7950 hc         1 X1J       0.059367
     19 H12         18.0300    61.3370    -5.5130 hc         1 X1J       0.059367
     20 H9          18.5870    62.2380   -14.1370 hn         1 X1J       0.448500
     21 H8          19.1560    60.6790   -14.2870 hn         1 X1J       0.448500
     22 H1          18.7620    58.6940   -10.0930 ha         1 X1J       0.114000
     23 H2          19.0640    59.0700   -12.5010 ha         1 X1J       0.114000
     24 C9          16.8880    62.5780    -6.8610 c          1 X1J       0.606100
     25 N2          18.4920    61.2830   -13.8290 nv         1 X1J      -1.070000
@<TRIPOS>BOND
     1     1     2 ar  
     2     1     8 ar  
     3     1    12 1   
     4     2     3 ar  
     5     2     4 1   
     6     3     5 1   
     7     3     9 ar  
     8     4     7 1   
     9     4    13 1   
    10     4    14 1   
    11     5     7 1   
    12     5    15 1   
    13     5    16 1   
    14     6    17 1   
    15     6    18 1   
    16     6    19 1   
    17     6    24 1   
    18     7    24 1   
    19     8    10 ar  
    20     8    25 1   
    21     9    10 ar  
    22     9    22 1   
    23    10    23 1   
    24    11    24 2   
    25    20    25 1   
    26    21    25 1   
@<TRIPOS>SUBSTRUCTURE
     1 X1J         1 TEMP              0 ****  ****    0 ROOT
