@<TRIPOS>MOLECULE
X1M
   23    23     1     0     0
SMALL
No Charge or Current Charge


@<TRIPOS>ATOM
      1 C4          30.8860    32.0420     3.6330 ca         1 X1M       0.397300
      2 C5          31.4510    32.7140     2.5330 ca         1 X1M      -0.195000
      3 C6          29.5850    31.2290     3.4780 c3         1 X1M       0.108500
      4 C7          27.1790    31.0190     4.1440 c3         1 X1M       0.143100
      5 C8          32.6080    32.1500     7.4100 c3         1 X1M       0.160900
      6 N1          31.4440    32.0740     4.8690 nb         1 X1M      -0.772000
      7 N2          28.4160    31.8210     4.1890 n7         1 X1M      -0.851400
      8 C3          32.5830    32.7800     5.0370 ca         1 X1M       0.593300
      9 C1          32.6330    33.4470     2.7070 ca         1 X1M      -0.043000
     10 C2          33.2030    33.4740     3.9880 ca         1 X1M      -0.187000
     11 O1          33.1770    32.8350     6.2770 os         1 X1M      -0.462300
     12 H3          30.9720    32.6670     1.5580 ha         1 X1M       0.126000
     13 H4          29.3580    31.1280     2.4070 h1         1 X1M       0.040200
     14 H5          29.7770    30.2150     3.8550 h1         1 X1M       0.040200
     15 H7          26.3700    31.5250     4.6880 h1         1 X1M       0.028700
     16 H8          26.8490    30.8680     3.1070 h1         1 X1M       0.028700
     17 H9          27.3340    30.0330     4.6030 h1         1 X1M       0.028700
     18 H12         33.2240    32.3130     8.3030 h1         1 X1M       0.044700
     19 H10         31.5960    32.5200     7.6240 h1         1 X1M       0.044700
     20 H11         32.5530    31.0690     7.2280 h1         1 X1M       0.044700
     21 H6          28.6890    31.9410     5.1760 hn         1 X1M       0.425000
     22 H1          33.0940    33.9780     1.8750 ha         1 X1M       0.120000
     23 H2          34.1180    34.0270     4.1750 ha         1 X1M       0.137000
@<TRIPOS>BOND
     1     1     2 ar  
     2     1     3 1   
     3     1     6 ar  
     4     2     9 ar  
     5     2    12 1   
     6     3     7 1   
     7     3    13 1   
     8     3    14 1   
     9     4     7 1   
    10     4    15 1   
    11     4    16 1   
    12     4    17 1   
    13     5    11 1   
    14     5    18 1   
    15     5    19 1   
    16     5    20 1   
    17     6     8 ar  
    18     7    21 1   
    19     8    10 ar  
    20     8    11 1   
    21     9    10 ar  
    22     9    22 1   
    23    10    23 1   
@<TRIPOS>SUBSTRUCTURE
     1 X1M         1 TEMP              0 ****  ****    0 ROOT
