@<TRIPOS>MOLECULE
X1M
   23    23     1     0     0
SMALL
abcg2


@<TRIPOS>ATOM
      1 C4          30.8730    32.0850     3.5720 ca         1 X1M       0.397300
      2 C5          31.5080    32.6700     2.4930 ca         1 X1M      -0.195000
      3 C6          29.5800    31.3310     3.4240 c3         1 X1M       0.108500
      4 C7          27.3810    30.9940     4.3380 c3         1 X1M       0.143100
      5 C8          32.3090    32.2140     7.3010 c3         1 X1M       0.160900
      6 N1          31.3770    32.1400     4.8090 nb         1 X1M      -0.772000
      7 N2          28.6040    31.7680     4.4010 n7         1 X1M      -0.851400
      8 C3          32.5080    32.7770     5.0120 ca         1 X1M       0.593300
      9 C1          32.7130    33.3360     2.7170 ca         1 X1M      -0.043000
     10 C2          33.2330    33.4010     3.9890 ca         1 X1M      -0.187000
     11 O1          33.0150    32.8470     6.2450 os         1 X1M      -0.462300
     12 H3          31.0740    32.6170     1.5040 ha         1 X1M       0.126000
     13 H4          29.1800    31.4940     2.4200 h1         1 X1M       0.040200
     14 H5          29.7970    30.2510     3.4960 h1         1 X1M       0.040200
     15 H7          26.7060    31.3080     5.1340 h1         1 X1M       0.028700
     16 H8          26.8750    31.1740     3.3880 h1         1 X1M       0.028700
     17 H9          27.5310    29.9090     4.4290 h1         1 X1M       0.028700
     18 H12         32.9000    32.3840     8.1970 h1         1 X1M       0.044700
     19 H10         31.3150    32.6410     7.4400 h1         1 X1M       0.044700
     20 H11         32.2060    31.1410     7.1370 h1         1 X1M       0.044700
     21 H6          29.0130    31.6720     5.3220 hn         1 X1M       0.425000
     22 H1          33.2370    33.8070     1.8940 ha         1 X1M       0.120000
     23 H2          34.1630    33.9100     4.2020 ha         1 X1M       0.137000
@<TRIPOS>BOND
     1     1     2 ar  
     2     1     3 1   
     3     1     6 ar  
     4     2     9 ar  
     5     2    12 1   
     6     3     7 1   
     7     3    13 1   
     8     3    14 1   
     9     4     7 1   
    10     4    15 1   
    11     4    16 1   
    12     4    17 1   
    13     5    11 1   
    14     5    18 1   
    15     5    19 1   
    16     5    20 1   
    17     6     8 ar  
    18     7    21 1   
    19     8    10 ar  
    20     8    11 1   
    21     9    10 ar  
    22     9    22 1   
    23    10    23 1   
@<TRIPOS>SUBSTRUCTURE
     1 X1M         1 TEMP              0 ****  ****    0 ROOT
