@<TRIPOS>MOLECULE
X1N
   37    40     1     0     0
SMALL
No Charge or Current Charge


@<TRIPOS>ATOM
      1 O9B          2.5520     3.3290     0.6710 o          1 X1N      -0.390500
      2 N7B          3.6330     2.7260     0.7340 no         1 X1N       0.664100
      3 O8B          4.6220     3.1690     1.3340 o          1 X1N      -0.390500
      4 C3B          3.7510     1.3930     0.0520 ce         1 X1N      -0.102100
      5 C2B          2.6880     0.8600    -0.6280 cf         1 X1N      -0.231600
      6 C4B          5.0210     0.6410     0.1120 ce         1 X1N      -0.187000
      7 C5B          5.1740    -0.5500    -0.5060 c2         1 X1N      -0.174200
      8 C6B          4.0500    -1.1990    -1.3130 c6         1 X1N      -0.113500
      9 C1B          2.7230    -0.4250    -1.3090 cf         1 X1N       0.531600
     10 N7           1.6630    -0.9100    -1.8840 ne         1 X1N      -0.630700
     11 C2           0.5630    -1.3290    -1.1250 ca         1 X1N       0.324000
     12 N3          -0.4820    -0.4810    -1.0200 nb         1 X1N      -0.165000
     13 C4          -1.5390    -0.8820    -0.2880 ca         1 X1N       0.231500
     14 C5A         -2.6780     0.0140    -0.1370 cc         1 X1N      -0.346500
     15 S4A         -3.0130     1.4510    -1.0530 ss         1 X1N       0.072600
     16 C3A         -4.4230     1.6450    -0.0340 cc         1 X1N       0.430700
     17 C20         -5.3500     2.8070    -0.2350 c3         1 X1N      -0.130400
     18 N2A         -4.6080     0.7330     0.9160 nd         1 X1N      -0.646000
     19 C1A         -3.5950    -0.2100     0.8600 cd         1 X1N       0.324300
     20 C6A         -3.4860    -1.3720     1.8210 c6         1 X1N      -0.106700
     21 C60         -2.7620    -2.5780     1.1730 c6         1 X1N      -0.016100
     22 C5          -1.5500    -2.1350     0.3510 ca         1 X1N      -0.181300
     23 C6          -0.4240    -2.9540     0.1790 ca         1 X1N       0.127900
     24 N1           0.6310    -2.5520    -0.5560 nb         1 X1N      -0.204000
     25 H2B          1.7420     1.3980    -0.6840 ha         1 X1N       0.236000
     26 H4B          5.8520     1.0750     0.6780 ha         1 X1N       0.223000
     27 H5B          6.1200    -1.0950    -0.4520 ha         1 X1N       0.197000
     28 H6B1         4.3740    -1.3250    -2.3540 hc         1 X1N       0.093700
     29 H6B2         3.8620    -2.2080    -0.9240 hc         1 X1N       0.093700
     30 H201        -5.5380     2.9740    -1.3020 hc         1 X1N       0.060033
     31 H202        -6.3150     2.6330     0.2550 hc         1 X1N       0.060033
     32 H203        -4.9150     3.7220     0.1830 hc         1 X1N       0.060033
     33 H6A1        -2.9270    -1.0500     2.7090 hc         1 X1N       0.069700
     34 H6A2        -4.4790    -1.6790     2.1760 hc         1 X1N       0.069700
     35 H601        -2.4630    -3.2960     1.9500 hc         1 X1N       0.059700
     36 H602        -3.4610    -3.1090     0.5130 hc         1 X1N       0.059700
     37 H6          -0.3600    -3.9420     0.6340 h4         1 X1N       0.029100
@<TRIPOS>BOND
     1     1     2 1   
     2     2     3 1   
     3     2     4 1   
     4     4     5 2   
     5     4     6 1   
     6     5     9 1   
     7     5    25 1   
     8     6     7 2   
     9     6    26 1   
    10     7     8 1   
    11     7    27 1   
    12     8     9 1   
    13     8    28 1   
    14     8    29 1   
    15     9    10 2   
    16    10    11 1   
    17    11    12 ar  
    18    11    24 ar  
    19    12    13 ar  
    20    13    14 1   
    21    13    22 ar  
    22    14    15 1   
    23    14    19 2   
    24    15    16 1   
    25    16    17 1   
    26    16    18 2   
    27    17    30 1   
    28    17    31 1   
    29    17    32 1   
    30    18    19 1   
    31    19    20 1   
    32    20    21 1   
    33    20    33 1   
    34    20    34 1   
    35    21    22 1   
    36    21    35 1   
    37    21    36 1   
    38    22    23 ar  
    39    23    24 ar  
    40    23    37 1   
@<TRIPOS>SUBSTRUCTURE
     1 X1N         1 TEMP              0 ****  ****    0 ROOT
