@<TRIPOS>MOLECULE
X1N
   37    40     1     0     0
SMALL
abcg2


@<TRIPOS>ATOM
      1 O9B          3.8830     0.7580     2.6650 o          1 X1N      -0.390500
      2 N7B          4.6520     1.0000     1.7670 no         1 X1N       0.664100
      3 O8B          5.6820     1.6150     1.9000 o          1 X1N      -0.390500
      4 C3B          4.3270     0.5210     0.4180 ce         1 X1N      -0.102100
      5 C2B          3.1260    -0.0450     0.2270 cf         1 X1N      -0.231600
      6 C4B          5.3150     0.7200    -0.6200 ce         1 X1N      -0.187000
      7 C5B          5.0480     0.2680    -1.8460 c2         1 X1N      -0.174200
      8 C6B          3.7960    -0.4550    -2.1840 c6         1 X1N      -0.113500
      9 C1B          2.7410    -0.4770    -1.1130 cf         1 X1N       0.531600
     10 N7           1.5680    -0.8530    -1.4440 ne         1 X1N      -0.630700
     11 C2           0.5440    -1.0700    -0.5400 ca         1 X1N       0.324000
     12 N3          -0.6030    -0.4620    -0.8260 nb         1 X1N      -0.165000
     13 C4          -1.6230    -0.7080    -0.0150 ca         1 X1N       0.231500
     14 C5A         -2.8840    -0.0410    -0.2160 cc         1 X1N      -0.346500
     15 S4A         -3.3410     0.9260    -1.5560 ss         1 X1N       0.072600
     16 C3A         -4.8410     1.2580    -0.7660 cc         1 X1N       0.430700
     17 C20         -5.8800     2.1090    -1.4060 c3         1 X1N      -0.130400
     18 N2A         -4.9710     0.7010     0.4020 nd         1 X1N      -0.646000
     19 C1A         -3.8770    -0.0340     0.7250 cd         1 X1N       0.324300
     20 C6A         -3.6990    -0.7350     2.0320 c6         1 X1N      -0.106700
     21 C60         -2.7610    -1.9310     1.8690 c6         1 X1N      -0.016100
     22 C5          -1.5380    -1.6010     1.0630 ca         1 X1N      -0.181300
     23 C6          -0.2950    -2.1670     1.2510 ca         1 X1N       0.127900
     24 N1           0.7500    -1.9040     0.4710 nb         1 X1N      -0.204000
     25 H2B          2.4190    -0.1340     1.0380 ha         1 X1N       0.236000
     26 H4B          6.2420     1.2250    -0.3980 ha         1 X1N       0.223000
     27 H5B          5.7720     0.3980    -2.6400 ha         1 X1N       0.197000
     28 H6B1         3.3710    -0.0740    -3.1150 hc         1 X1N       0.093700
     29 H6B2         4.0590    -1.4980    -2.4080 hc         1 X1N       0.093700
     30 H201        -5.5700     2.4670    -2.3850 hc         1 X1N       0.060033
     31 H202        -6.8060     1.5460    -1.5250 hc         1 X1N       0.060033
     32 H203        -6.0970     2.9740    -0.7790 hc         1 X1N       0.060033
     33 H6A1        -3.2890    -0.0250     2.7590 hc         1 X1N       0.069700
     34 H6A2        -4.6620    -1.0630     2.4230 hc         1 X1N       0.069700
     35 H601        -2.4750    -2.3220     2.8460 hc         1 X1N       0.059700
     36 H602        -3.3020    -2.7350     1.3580 hc         1 X1N       0.059700
     37 H6          -0.1280    -2.8660     2.0650 h4         1 X1N       0.029100
@<TRIPOS>BOND
     1     1     2 1   
     2     2     3 1   
     3     2     4 1   
     4     4     5 2   
     5     4     6 1   
     6     5     9 1   
     7     5    25 1   
     8     6     7 2   
     9     6    26 1   
    10     7     8 1   
    11     7    27 1   
    12     8     9 1   
    13     8    28 1   
    14     8    29 1   
    15     9    10 2   
    16    10    11 1   
    17    11    12 ar  
    18    11    24 ar  
    19    12    13 ar  
    20    13    14 1   
    21    13    22 ar  
    22    14    15 1   
    23    14    19 2   
    24    15    16 1   
    25    16    17 1   
    26    16    18 2   
    27    17    30 1   
    28    17    31 1   
    29    17    32 1   
    30    18    19 1   
    31    19    20 1   
    32    20    21 1   
    33    20    33 1   
    34    20    34 1   
    35    21    22 1   
    36    21    35 1   
    37    21    36 1   
    38    22    23 ar  
    39    23    24 ar  
    40    23    37 1   
@<TRIPOS>SUBSTRUCTURE
     1 X1N         1 TEMP              0 ****  ****    0 ROOT
