@<TRIPOS>MOLECULE
X1Q
   45    47     1     0     0
SMALL
No Charge or Current Charge


@<TRIPOS>ATOM
      1 C15         23.2630     8.3990   -34.0130 ca         1 X1Q      -0.098000
      2 C16         23.4870     8.9410   -35.2910 ca         1 X1Q      -0.112000
      3 C17         22.7860    10.0870   -35.7000 ca         1 X1Q      -0.106000
      4 C18         21.8570    10.6880   -34.8340 ca         1 X1Q      -0.112000
      5 C19         21.6350    10.1440   -33.5570 ca         1 X1Q      -0.098000
      6 C1          25.9770     8.6790   -25.3840 c3         1 X1Q      -0.098100
      7 C2          25.7050     7.3670   -24.6230 c3         1 X1Q       0.166800
      8 N1          24.3280     6.8670   -24.8420 n7         1 X1Q      -0.887400
      9 C4          22.8990     8.9530   -24.3760 cc         1 X1Q       0.403800
     10 N2          22.8590     9.9590   -23.5210 nd         1 X1Q      -0.397000
     11 N3          22.4910    11.0670   -24.2430 nd         1 X1Q      -0.042000
     12 N4          22.2940    10.7850   -25.5020 nc         1 X1Q      -0.211800
     13 N5          22.5430     9.4530   -25.6110 na         1 X1Q       0.012400
     14 C5          22.4390     8.7620   -26.8530 c2         1 X1Q      -0.125100
     15 C7          21.9450     8.5340   -29.3120 ca         1 X1Q      -0.064800
     16 C8          22.2330     9.1520   -30.5600 ca         1 X1Q      -0.035300
     17 C9          22.7270    10.6030   -30.5860 c3         1 X1Q      -0.058800
     18 C10         22.0970     8.4030   -31.7690 cp         1 X1Q      -0.037000
     19 C11         21.7140     7.0440   -31.6900 ca         1 X1Q      -0.088000
     20 C12         21.4480     6.4370   -30.4570 ca         1 X1Q      -0.117000
     21 C13         21.5550     7.1810   -29.2760 ca         1 X1Q      -0.095000
     22 C14         22.3410     8.9960   -33.1200 cp         1 X1Q      -0.040000
     23 H17         23.8120     7.5120   -33.7060 ha         1 X1Q       0.115500
     24 H18         24.2030     8.4730   -35.9620 ha         1 X1Q       0.113500
     25 H19         22.9580    10.5070   -36.6890 ha         1 X1Q       0.113000
     26 H20         21.3080    11.5710   -35.1520 ha         1 X1Q       0.113500
     27 H21         20.9050    10.6100   -32.8990 ha         1 X1Q       0.115500
     28 H1          27.0490     8.9070   -25.3590 hc         1 X1Q       0.044367
     29 H2          25.6730     8.5930   -26.4340 hc         1 X1Q       0.044367
     30 H3          25.4510     9.5240   -24.9310 hc         1 X1Q       0.044367
     31 H5          25.9130     7.5050   -23.5530 h1         1 X1Q       0.032200
     32 H4          26.4170     6.6200   -24.9980 h1         1 X1Q       0.032200
     33 H6          24.3360     5.8660   -24.5940 hn         1 X1Q       0.425000
     34 H8          23.4690     7.4510   -22.9660 h1         1 X1Q       0.063200
     35 H7          22.3030     6.9310   -24.1730 h1         1 X1Q       0.063200
     36 H9          22.7500     7.7210   -26.7740 h4         1 X1Q       0.226000
     37 H10         21.7410    10.3450   -28.0850 ha         1 X1Q       0.205000
     38 H12         21.8870    11.3060   -30.5480 hc         1 X1Q       0.050367
     39 H13         23.3900    10.8210   -29.7400 hc         1 X1Q       0.050367
     40 H11         23.3120    10.8260   -31.4850 hc         1 X1Q       0.050367
     41 H14         21.6110     6.4610   -32.6020 ha         1 X1Q       0.119000
     42 H15         21.1450     5.3930   -30.4180 ha         1 X1Q       0.116000
     43 H16         21.3210     6.7010   -28.3290 ha         1 X1Q       0.110000
     44 C6          22.0310     9.2940   -28.0280 ce         1 X1Q      -0.142200
     45 C3          23.2300     7.5040   -24.0380 c3         1 X1Q       0.132500
@<TRIPOS>BOND
     1     1     2 ar  
     2     1    22 ar  
     3     1    23 1   
     4     2     3 ar  
     5     2    24 1   
     6     3     4 ar  
     7     3    25 1   
     8     4     5 ar  
     9     4    26 1   
    10     5    22 ar  
    11     5    27 1   
    12     6     7 1   
    13     6    28 1   
    14     6    29 1   
    15     6    30 1   
    16     7     8 1   
    17     7    31 1   
    18     7    32 1   
    19     8    33 1   
    20     8    45 1   
    21     9    10 2   
    22     9    13 1   
    23     9    45 1   
    24    10    11 1   
    25    11    12 2   
    26    12    13 1   
    27    13    14 1   
    28    14    36 1   
    29    14    44 2   
    30    15    16 ar  
    31    15    21 ar  
    32    15    44 1   
    33    16    17 1   
    34    16    18 ar  
    35    17    38 1   
    36    17    39 1   
    37    17    40 1   
    38    18    19 ar  
    39    18    22 1   
    40    19    20 ar  
    41    19    41 1   
    42    20    21 ar  
    43    20    42 1   
    44    21    43 1   
    45    34    45 1   
    46    35    45 1   
    47    37    44 1   
@<TRIPOS>SUBSTRUCTURE
     1 X1Q         1 TEMP              0 ****  ****    0 ROOT
