@<TRIPOS>MOLECULE
X1Q
   45    47     1     0     0
SMALL
abcg2


@<TRIPOS>ATOM
      1 C15         23.1720     8.5570   -34.1420 ca         1 X1Q      -0.098000
      2 C16         23.2000     9.0920   -35.4230 ca         1 X1Q      -0.112000
      3 C17         22.3050    10.0910   -35.7820 ca         1 X1Q      -0.106000
      4 C18         21.3830    10.5510   -34.8510 ca         1 X1Q      -0.112000
      5 C19         21.3580    10.0180   -33.5710 ca         1 X1Q      -0.098000
      6 C1          26.0980     8.4060   -24.4760 c3         1 X1Q      -0.098100
      7 C2          25.4300     7.0560   -24.2800 c3         1 X1Q       0.166800
      8 N1          24.0900     6.9890   -24.8450 n7         1 X1Q      -0.887400
      9 C4          22.9850     9.1620   -24.5960 cc         1 X1Q       0.403800
     10 N2          22.9640    10.2260   -23.8320 nd         1 X1Q      -0.397000
     11 N3          22.8190    11.2730   -24.6440 nd         1 X1Q      -0.042000
     12 N4          22.7510    10.9080   -25.8590 nc         1 X1Q      -0.211800
     13 N5          22.8490     9.5800   -25.8670 na         1 X1Q       0.012400
     14 C5          22.7800     8.8180   -27.0460 c2         1 X1Q      -0.125100
     15 C7          22.2220     8.5230   -29.4310 ca         1 X1Q      -0.064800
     16 C8          22.3400     9.1660   -30.6770 ca         1 X1Q      -0.035300
     17 C9          22.6570    10.6360   -30.7240 c3         1 X1Q      -0.058800
     18 C10         22.2000     8.4080   -31.8470 cp         1 X1Q      -0.037000
     19 C11         21.9920     7.0310   -31.7630 ca         1 X1Q      -0.088000
     20 C12         21.8890     6.4010   -30.5340 ca         1 X1Q      -0.117000
     21 C13         21.9870     7.1480   -29.3750 ca         1 X1Q      -0.095000
     22 C14         22.2540     9.0160   -33.1980 cp         1 X1Q      -0.040000
     23 H17         23.8780     7.7820   -33.8700 ha         1 X1Q       0.115500
     24 H18         23.9240     8.7270   -36.1410 ha         1 X1Q       0.113500
     25 H19         22.3250    10.5070   -36.7810 ha         1 X1Q       0.113000
     26 H20         20.6770    11.3250   -35.1240 ha         1 X1Q       0.113500
     27 H21         20.6290    10.3780   -32.8550 ha         1 X1Q       0.115500
     28 H1          27.1390     8.3550   -24.1540 hc         1 X1Q       0.044367
     29 H2          26.0820     8.7030   -25.5250 hc         1 X1Q       0.044367
     30 H3          25.6220     9.1940   -23.8910 hc         1 X1Q       0.044367
     31 H5          25.4340     6.8040   -23.2100 h1         1 X1Q       0.032200
     32 H4          26.0230     6.2900   -24.7830 h1         1 X1Q       0.032200
     33 H6          23.7960     6.0240   -24.8870 hn         1 X1Q       0.425000
     34 H8          23.2350     7.7730   -23.0460 h1         1 X1Q       0.063200
     35 H7          22.1120     7.2760   -24.3010 h1         1 X1Q       0.063200
     36 H9          23.1540     7.8120   -26.9150 h4         1 X1Q       0.226000
     37 H10         22.0020    10.3420   -28.2370 ha         1 X1Q       0.205000
     38 H12         21.7840    11.2480   -30.4810 hc         1 X1Q       0.050367
     39 H13         23.4380    10.8940   -30.0090 hc         1 X1Q       0.050367
     40 H11         23.0030    10.9460   -31.7070 hc         1 X1Q       0.050367
     41 H14         21.8850     6.4550   -32.6740 ha         1 X1Q       0.119000
     42 H15         21.7070     5.3360   -30.4810 ha         1 X1Q       0.116000
     43 H16         21.8580     6.6610   -28.4160 ha         1 X1Q       0.110000
     44 C6          22.3230     9.3090   -28.1960 ce         1 X1Q      -0.142200
     45 C3          23.0840     7.7470   -24.1330 c3         1 X1Q       0.132500
@<TRIPOS>BOND
     1     1     2 ar  
     2     1    22 ar  
     3     1    23 1   
     4     2     3 ar  
     5     2    24 1   
     6     3     4 ar  
     7     3    25 1   
     8     4     5 ar  
     9     4    26 1   
    10     5    22 ar  
    11     5    27 1   
    12     6     7 1   
    13     6    28 1   
    14     6    29 1   
    15     6    30 1   
    16     7     8 1   
    17     7    31 1   
    18     7    32 1   
    19     8    33 1   
    20     8    45 1   
    21     9    10 2   
    22     9    13 1   
    23     9    45 1   
    24    10    11 1   
    25    11    12 2   
    26    12    13 1   
    27    13    14 1   
    28    14    36 1   
    29    14    44 2   
    30    15    16 ar  
    31    15    21 ar  
    32    15    44 1   
    33    16    17 1   
    34    16    18 ar  
    35    17    38 1   
    36    17    39 1   
    37    17    40 1   
    38    18    19 ar  
    39    18    22 1   
    40    19    20 ar  
    41    19    41 1   
    42    20    21 ar  
    43    20    42 1   
    44    21    43 1   
    45    34    45 1   
    46    35    45 1   
    47    37    44 1   
@<TRIPOS>SUBSTRUCTURE
     1 X1Q         1 TEMP              0 ****  ****    0 ROOT
