@<TRIPOS>MOLECULE
X1R
   22    21     1     0     0
SMALL
No Charge or Current Charge


@<TRIPOS>ATOM
      1 C3           4.5870    -1.2530    -0.1090 c3         1 X1R      -0.082100
      2 C4           3.5120    -0.1620     0.0410 c3         1 X1R      -0.047400
      3 C5           2.0760    -0.7330    -0.0410 c3         1 X1R      -0.312400
      4 C7          -0.7660    -0.3860     0.0020 c3         1 X1R      -0.197400
      5 C8          -2.0450     0.5000     0.1230 c3         1 X1R      -0.205400
      6 C9          -3.3100    -0.3630     0.0010 c          1 X1R       0.731000
      7 O1           0.8880     1.0870     1.4900 o          1 X1R      -0.545000
      8 O2           0.8920     1.4370    -1.0210 o          1 X1R      -0.545000
      9 O3          -3.7650    -0.8620     1.0190 o          1 X1R      -0.724500
     10 O4          -3.7610    -0.5650    -1.1160 o          1 X1R      -0.724500
     11 S5           0.7930     0.5320     0.1330 s6         1 X1R       1.012000
     12 H31C         5.5900    -0.8130    -0.0460 hc         1 X1R       0.027367
     13 H32C         4.4900    -2.0040     0.6840 hc         1 X1R       0.027367
     14 H33C         4.4940    -1.7580    -1.0780 hc         1 X1R       0.027367
     15 H41C         3.6540     0.3480     1.0030 hc         1 X1R       0.054700
     16 H42C         3.6570     0.5910    -0.7450 hc         1 X1R       0.054700
     17 H51C         1.9080    -1.2140    -1.0110 h1         1 X1R       0.086700
     18 H52C         1.9050    -1.4610     0.7600 h1         1 X1R       0.086700
     19 H71C        -0.7460    -1.1390     0.7980 h1         1 X1R       0.091200
     20 H72C        -0.7430    -0.8930    -0.9690 h1         1 X1R       0.091200
     21 H81C        -2.0020     0.9640     1.1160 hc         1 X1R       0.046700
     22 H82C        -1.9990     1.2180    -0.7040 hc         1 X1R       0.046700
@<TRIPOS>BOND
     1     1     2 1   
     2     1    12 1   
     3     1    13 1   
     4     1    14 1   
     5     2     3 1   
     6     2    15 1   
     7     2    16 1   
     8     3    11 1   
     9     3    17 1   
    10     3    18 1   
    11     4     5 1   
    12     4    11 1   
    13     4    19 1   
    14     4    20 1   
    15     5     6 1   
    16     5    21 1   
    17     5    22 1   
    18     6     9 1   
    19     6    10 1   
    20     7    11 2   
    21     8    11 2   
@<TRIPOS>SUBSTRUCTURE
     1 X1R         1 TEMP              0 ****  ****    0 ROOT
