@<TRIPOS>MOLECULE
X1R
   22    21     1     0     0
SMALL
bcc


@<TRIPOS>ATOM
      1 C3           4.5520    -1.1910     0.0110 c3         1 X1R      -0.082100
      2 C4           3.4530    -0.1380     0.0200 c3         1 X1R      -0.047400
      3 C5           2.0760    -0.7900     0.0120 c3         1 X1R      -0.201600
      4 C7          -0.7410    -0.4840     0.0120 c3         1 X1R      -0.086600
      5 C8          -1.9390     0.4490     0.0230 c3         1 X1R      -0.205400
      6 C9          -3.2910    -0.3000     0.0050 c          1 X1R       0.941600
      7 O1           0.8750     1.1980     1.2840 o          1 X1R      -0.615800
      8 O2           0.8780     1.2240    -1.2200 o          1 X1R      -0.615800
      9 O3          -3.2560    -1.5440    -0.0110 o          1 X1R      -0.829800
     10 O4          -4.3020     0.4260     0.0080 o          1 X1R      -0.829800
     11 S5           0.7840     0.4510     0.0230 s6         1 X1R       0.932000
     12 H31C         5.5350    -0.7210     0.0220 hc         1 X1R       0.027367
     13 H32C         4.4830    -1.8420     0.8830 hc         1 X1R       0.027367
     14 H33C         4.4930    -1.8170    -0.8800 hc         1 X1R       0.027367
     15 H41C         3.5530     0.4940     0.9040 hc         1 X1R       0.054700
     16 H42C         3.5560     0.5120    -0.8510 hc         1 X1R       0.054700
     17 H51C         1.9260    -1.4020    -0.8800 h1         1 X1R       0.086700
     18 H52C         1.9240    -1.4200     0.8900 h1         1 X1R       0.086700
     19 H71C        -0.7190    -1.1320     0.8890 h1         1 X1R       0.091200
     20 H72C        -0.7180    -1.1110    -0.8800 h1         1 X1R       0.091200
     21 H81C        -1.9110     1.0900     0.9080 hc         1 X1R       0.046700
     22 H82C        -1.9040     1.1190    -0.8400 hc         1 X1R       0.046700
@<TRIPOS>BOND
     1     1     2 1   
     2     1    12 1   
     3     1    13 1   
     4     1    14 1   
     5     2     3 1   
     6     2    15 1   
     7     2    16 1   
     8     3    11 1   
     9     3    17 1   
    10     3    18 1   
    11     4     5 1   
    12     4    11 1   
    13     4    19 1   
    14     4    20 1   
    15     5     6 1   
    16     5    21 1   
    17     5    22 1   
    18     6     9 1   
    19     6    10 1   
    20     7    11 2   
    21     8    11 2   
@<TRIPOS>SUBSTRUCTURE
     1 X1R         1 TEMP              0 ****  ****    0 ROOT
