@<TRIPOS>MOLECULE
X1S
   13    12     1     0     0
SMALL
No Charge or Current Charge


@<TRIPOS>ATOM
      1 CB          -0.0300     0.5170    -0.1240 c3         1 X1S      -0.309400
      2 CG          -1.1190    -0.5590     0.1990 c3         1 X1S      -0.165400
      3 CD          -2.5410     0.0340     0.0900 c          1 X1S       0.714000
      4 OE1         -3.0310     0.5540     1.0810 o          1 X1S      -0.771000
      5 OE2         -3.1010     0.0020    -0.9960 o          1 X1S      -0.771000
      6 O1           2.4790     1.1250    -0.3700 o          1 X1S      -0.729200
      7 O2           1.8430    -0.5120     1.3680 o          1 X1S      -0.729200
      8 O3           1.7630    -1.1470    -1.0220 o          1 X1S      -0.729200
      9 S            1.6910    -0.0670    -0.0260 s6         1 X1S       1.314600
     10 HB1C        -0.1670     0.8960    -1.1420 h1         1 X1S       0.061200
     11 HB2C        -0.1090     1.3540     0.5790 h1         1 X1S       0.061200
     12 HG1C        -0.9870    -1.3550    -0.5440 hc         1 X1S       0.026700
     13 HG2C        -0.9270    -0.8830     1.2300 hc         1 X1S       0.026700
@<TRIPOS>BOND
     1     1     2 1   
     2     1     9 1   
     3     1    10 1   
     4     1    11 1   
     5     2     3 1   
     6     2    12 1   
     7     2    13 1   
     8     3     4 1   
     9     3     5 1   
    10     6     9 1   
    11     7     9 1   
    12     8     9 1   
@<TRIPOS>SUBSTRUCTURE
     1 X1S         1 TEMP              0 ****  ****    0 ROOT
