@<TRIPOS>MOLECULE
X1S
   13    12     1     0     0
SMALL
abcg2


@<TRIPOS>ATOM
      1 CB          -0.0310     0.5860     0.0270 c3         1 X1S      -0.309400
      2 CG          -1.0900    -0.4980     0.0220 c3         1 X1S      -0.165400
      3 CD          -2.5420     0.0210     0.0250 c          1 X1S       0.714000
      4 OE1         -2.7200     1.2540     0.0440 o          1 X1S      -0.771000
      5 OE2         -3.4280    -0.8580     0.0110 o          1 X1S      -0.771000
      6 O1           2.5310     1.1170     0.0300 o          1 X1S      -0.729200
      7 O2           1.7750    -0.8830     1.2510 o          1 X1S      -0.729200
      8 O3           1.7750    -0.8710    -1.2120 o          1 X1S      -0.729200
      9 S            1.6450    -0.0680     0.0240 s6         1 X1S       1.314600
     10 HB1C        -0.1180     1.2310    -0.8490 h1         1 X1S       0.061200
     11 HB2C        -0.1180     1.2220     0.9090 h1         1 X1S       0.061200
     12 HG1C        -0.9570    -1.1440    -0.8510 hc         1 X1S       0.026700
     13 HG2C        -0.9580    -1.1500     0.8910 hc         1 X1S       0.026700
@<TRIPOS>BOND
     1     1     2 1   
     2     1     9 1   
     3     1    10 1   
     4     1    11 1   
     5     2     3 1   
     6     2    12 1   
     7     2    13 1   
     8     3     4 1   
     9     3     5 1   
    10     6     9 1   
    11     7     9 1   
    12     8     9 1   
@<TRIPOS>SUBSTRUCTURE
     1 X1S         1 TEMP              0 ****  ****    0 ROOT
