@<TRIPOS>MOLECULE
X1T
   52    55     1     0     0
SMALL
No Charge or Current Charge


@<TRIPOS>ATOM
      1 C13        -29.3290    11.4640    10.8350 ca         1 X1T      -0.085000
      2 C15        -29.9990    13.3570    12.1740 ca         1 X1T      -0.098000
      3 C12        -28.4820    12.3210    10.0980 ca         1 X1T       0.289500
      4 C16        -29.1360    14.1600    11.4030 ca         1 X1T       0.265300
      5 C1         -24.1610    12.6810     5.1610 cc         1 X1T      -0.057000
      6 C10        -25.9650    12.6300     7.2520 cd         1 X1T       0.020600
      7 C11        -27.6380    11.7620     8.9490 c          1 X1T       0.512600
      8 C14        -30.0990    11.9860    11.8880 ca         1 X1T      -0.084000
      9 C17        -28.9980    15.6550    11.6820 c3         1 X1T       0.136000
     10 C18        -25.3250    13.8790     6.8720 cd         1 X1T       0.132100
     11 C19        -25.0640    16.2940     7.2760 c3         1 X1T       0.168600
     12 C2         -23.5020    11.0500     3.9070 cd         1 X1T       0.061400
     13 C20        -25.6530    17.3140     8.2630 c3         1 X1T      -0.097100
     14 C21        -24.4240    13.9060     5.8270 cc         1 X1T      -0.174000
     15 C3         -22.7420    10.3610     2.8020 c3         1 X1T       0.012800
     16 C4         -23.3050    10.6380     1.3880 c5         1 X1T      -0.096700
     17 C5         -24.7520    10.1550     1.1520 c5         1 X1T       0.156600
     18 C6         -23.6550     9.9430    -0.9050 c5         1 X1T       0.155600
     19 C7         -22.6010     9.8650     0.2400 c5         1 X1T      -0.113400
     20 C8         -24.3960    10.4690     4.7850 cc         1 X1T      -0.274100
     21 C9         -25.7010    11.4260     6.5890 cc         1 X1T      -0.121000
     22 F1         -28.5590    15.8920    12.9410 f          1 X1T      -0.114500
     23 F2         -30.1810    16.3010    11.5510 f          1 X1T      -0.114500
     24 N1         -24.7790    11.5310     5.5460 na         1 X1T       0.129100
     25 N2         -23.3610    12.4160     4.1460 nd         1 X1T      -0.299600
     26 N3         -26.8560    12.7180     8.3180 ns         1 X1T      -0.368100
     27 N4         -28.3920    13.6570    10.3870 nb         1 X1T      -0.662000
     28 O1         -24.9050    10.3100    -0.2710 os         1 X1T      -0.465000
     29 O2         -27.6560    10.5790     8.6220 o          1 X1T      -0.591100
     30 O3         -25.6480    15.0160     7.5830 os         1 X1T      -0.362100
     31 H13        -29.3860    10.4070    10.5900 ha         1 X1T       0.154000
     32 H15        -30.5800    13.7950    12.9810 ha         1 X1T       0.145000
     33 H14        -30.7590    11.3430    12.4670 ha         1 X1T       0.133000
     34 H16        -28.2850    16.1000    10.9800 h2         1 X1T       0.080700
     35 H18        -23.9730    16.2640     7.3910 h1         1 X1T       0.042200
     36 H17        -25.3060    16.5990     6.2490 h1         1 X1T       0.042200
     37 H21        -25.2380    18.3110     8.0710 hc         1 X1T       0.050367
     38 H20        -26.7430    17.3690     8.1580 hc         1 X1T       0.050367
     39 H19        -25.4130    17.0350     9.2960 hc         1 X1T       0.050367
     40 H22        -23.9140    14.8030     5.4950 ha         1 X1T       0.148000
     41 H2         -21.6910    10.6720     2.8400 hc         1 X1T       0.052700
     42 H1         -22.7370     9.2810     2.9900 hc         1 X1T       0.052700
     43 H3         -23.2400    11.7200     1.2220 hc         1 X1T       0.076700
     44 H5         -24.8860     9.0980     1.4210 h1         1 X1T       0.043700
     45 H4         -25.5010    10.7600     1.6820 h1         1 X1T       0.043700
     46 H7         -23.7700     8.9800    -1.4210 h1         1 X1T       0.041700
     47 H6         -23.3990    10.7110    -1.6470 h1         1 X1T       0.041700
     48 H9         -22.4040     8.8220     0.5130 hc         1 X1T       0.052700
     49 H8         -21.6420    10.3130    -0.0450 hc         1 X1T       0.052700
     50 H10        -24.7580     9.4560     4.9080 h4         1 X1T       0.234000
     51 H11        -26.1190    10.4510     6.7910 h4         1 X1T       0.180000
     52 H12        -26.9840    13.6360     8.7370 hn         1 X1T       0.370500
@<TRIPOS>BOND
     1     1     3 ar  
     2     1     8 ar  
     3     1    31 1   
     4     2     4 ar  
     5     2     8 ar  
     6     2    32 1   
     7     3     7 1   
     8     3    27 ar  
     9     4     9 1   
    10     4    27 ar  
    11     5    14 1   
    12     5    24 1   
    13     5    25 2   
    14     6    10 1   
    15     6    21 2   
    16     6    26 1   
    17     7    26 1   
    18     7    29 2   
    19     8    33 1   
    20     9    22 1   
    21     9    23 1   
    22     9    34 1   
    23    10    14 2   
    24    10    30 1   
    25    11    13 1   
    26    11    30 1   
    27    11    35 1   
    28    11    36 1   
    29    12    15 1   
    30    12    20 2   
    31    12    25 1   
    32    13    37 1   
    33    13    38 1   
    34    13    39 1   
    35    14    40 1   
    36    15    16 1   
    37    15    41 1   
    38    15    42 1   
    39    16    17 1   
    40    16    19 1   
    41    16    43 1   
    42    17    28 1   
    43    17    44 1   
    44    17    45 1   
    45    18    19 1   
    46    18    28 1   
    47    18    46 1   
    48    18    47 1   
    49    19    48 1   
    50    19    49 1   
    51    20    24 1   
    52    20    50 1   
    53    21    24 1   
    54    21    51 1   
    55    26    52 1   
@<TRIPOS>SUBSTRUCTURE
     1 X1T         1 TEMP              0 ****  ****    0 ROOT
