@<TRIPOS>MOLECULE
X1T
   52    55     1     0     0
SMALL
abcg2


@<TRIPOS>ATOM
      1 C13        -29.2080    11.4720    10.8730 ca         1 X1T      -0.085000
      2 C15        -29.9790    13.3840    12.0880 ca         1 X1T      -0.098000
      3 C12        -28.4400    12.3370    10.1080 ca         1 X1T       0.289500
      4 C16        -29.1720    14.1610    11.2680 ca         1 X1T       0.265300
      5 C1         -24.1970    12.5690     5.1770 cc         1 X1T      -0.057000
      6 C10        -25.9970    12.6210     7.2990 cd         1 X1T       0.020600
      7 C11        -27.5810    11.8020     8.9980 c          1 X1T       0.512600
      8 C14        -29.9890    12.0140    11.8810 ca         1 X1T      -0.084000
      9 C17        -29.0530    15.6510    11.4210 c3         1 X1T       0.136000
     10 C18        -25.3290    13.8250     6.8700 cd         1 X1T       0.132100
     11 C19        -25.0810    16.1690     7.2440 c3         1 X1T       0.168600
     12 C2         -23.5350    10.9500     3.9500 cd         1 X1T       0.061400
     13 C20        -25.6410    17.2030     8.1900 c3         1 X1T      -0.097100
     14 C21        -24.4490    13.7950     5.8290 cc         1 X1T      -0.174000
     15 C3         -22.8090    10.2540     2.8490 c3         1 X1T       0.012800
     16 C4         -23.2990    10.6760     1.4680 c5         1 X1T      -0.096700
     17 C5         -24.7590    10.3260     1.2020 c5         1 X1T       0.156600
     18 C6         -23.6200    10.1460    -0.8180 c5         1 X1T       0.155600
     19 C7         -22.6130     9.9620     0.3080 c5         1 X1T      -0.113400
     20 C8         -24.4210    10.3980     4.8350 cc         1 X1T      -0.274100
     21 C9         -25.7340    11.4500     6.6590 cc         1 X1T      -0.121000
     22 F1         -27.9530    15.9410    12.1730 f          1 X1T      -0.114500
     23 F2         -30.1240    16.1530    12.0830 f          1 X1T      -0.114500
     24 N1         -24.8460    11.4420     5.6240 na         1 X1T       0.129100
     25 N2         -23.4000    12.2890     4.1630 nd         1 X1T      -0.299600
     26 N3         -26.8830    12.7620     8.3620 ns         1 X1T      -0.368100
     27 N4         -28.4270    13.6480    10.3040 nb         1 X1T      -0.662000
     28 O1         -24.9010    10.2190    -0.2040 os         1 X1T      -0.465000
     29 O2         -27.5500    10.6130     8.7340 o          1 X1T      -0.591100
     30 O3         -25.6590    14.9100     7.5790 os         1 X1T      -0.362100
     31 H13        -29.1980    10.4080    10.6830 ha         1 X1T       0.154000
     32 H15        -30.5860    13.8260    12.8650 ha         1 X1T       0.145000
     33 H14        -30.6050    11.3740    12.4980 ha         1 X1T       0.133000
     34 H16        -28.9570    16.1580    10.4600 h2         1 X1T       0.080700
     35 H18        -23.9920    16.1090     7.3320 h1         1 X1T       0.042200
     36 H17        -25.3210    16.4190     6.2050 h1         1 X1T       0.042200
     37 H21        -25.2150    18.1760     7.9500 hc         1 X1T       0.050367
     38 H20        -26.7250    17.2800     8.1000 hc         1 X1T       0.050367
     39 H19        -25.3910    16.9730     9.2250 hc         1 X1T       0.050367
     40 H22        -23.9310    14.6760     5.4780 ha         1 X1T       0.148000
     41 H2         -21.7390    10.4640     2.9290 hc         1 X1T       0.052700
     42 H1         -22.9290     9.1730     2.9590 hc         1 X1T       0.052700
     43 H3         -23.1610    11.7570     1.3570 hc         1 X1T       0.076700
     44 H5         -25.0130     9.3710     1.6860 h1         1 X1T       0.043700
     45 H4         -25.4520    11.0810     1.5820 h1         1 X1T       0.043700
     46 H7         -23.6040     9.3220    -1.5360 h1         1 X1T       0.041700
     47 H6         -23.4210    11.0720    -1.3710 h1         1 X1T       0.041700
     48 H9         -22.4790     8.9020     0.5430 hc         1 X1T       0.052700
     49 H8         -21.6350    10.3770     0.0650 hc         1 X1T       0.052700
     50 H10        -24.7790     9.3910     4.9720 h4         1 X1T       0.234000
     51 H11        -26.1870    10.5070     6.9150 h4         1 X1T       0.180000
     52 H12        -27.0240    13.7010     8.7150 hn         1 X1T       0.370500
@<TRIPOS>BOND
     1     1     3 ar  
     2     1     8 ar  
     3     1    31 1   
     4     2     4 ar  
     5     2     8 ar  
     6     2    32 1   
     7     3     7 1   
     8     3    27 ar  
     9     4     9 1   
    10     4    27 ar  
    11     5    14 1   
    12     5    24 1   
    13     5    25 2   
    14     6    10 1   
    15     6    21 2   
    16     6    26 1   
    17     7    26 1   
    18     7    29 2   
    19     8    33 1   
    20     9    22 1   
    21     9    23 1   
    22     9    34 1   
    23    10    14 2   
    24    10    30 1   
    25    11    13 1   
    26    11    30 1   
    27    11    35 1   
    28    11    36 1   
    29    12    15 1   
    30    12    20 2   
    31    12    25 1   
    32    13    37 1   
    33    13    38 1   
    34    13    39 1   
    35    14    40 1   
    36    15    16 1   
    37    15    41 1   
    38    15    42 1   
    39    16    17 1   
    40    16    19 1   
    41    16    43 1   
    42    17    28 1   
    43    17    44 1   
    44    17    45 1   
    45    18    19 1   
    46    18    28 1   
    47    18    46 1   
    48    18    47 1   
    49    19    48 1   
    50    19    49 1   
    51    20    24 1   
    52    20    50 1   
    53    21    24 1   
    54    21    51 1   
    55    26    52 1   
@<TRIPOS>SUBSTRUCTURE
     1 X1T         1 TEMP              0 ****  ****    0 ROOT
