@<TRIPOS>MOLECULE
X1V
   72    74     1     0     0
SMALL
abcg2


@<TRIPOS>ATOM
      1 C01         33.7570    -0.5660    63.4980 ca         1 X1V      -0.147600
      2 C02         32.3960    -0.2960    64.0560 c          1 X1V       0.620700
      3 O03         32.2140    -0.1260    65.2540 o          1 X1V      -0.611100
      4 N04         31.4020    -0.2550    63.1520 ns         1 X1V      -0.496900
      5 C05         30.0110    -0.1270    63.4900 c3         1 X1V       0.009700
      6 C06         29.5870     1.3460    63.6330 c3         1 X1V       0.086000
      7 N07         29.8440     2.1200    62.4440 ns         1 X1V      -0.487900
      8 C08         28.9360     2.2850    61.4680 c          1 X1V       0.647700
      9 O09         27.7910     1.8570    61.5220 o          1 X1V      -0.612100
     10 C10         29.3710     3.0390    60.2780 cc         1 X1V      -0.299600
     11 C11         30.5130     3.7280    59.9850 cd         1 X1V      -0.094000
     12 C12         30.4930     4.3120    58.6960 cd         1 X1V      -0.134000
     13 C13         29.3260     4.0420    58.0470 cc         1 X1V      -0.047000
     14 CL1         28.8980     4.5460    56.4750 cl         1 X1V      -0.140000
     15 S15         28.2420     3.0960    58.9770 ss         1 X1V       0.363000
     16 C16         29.2130    -0.8120    62.3850 c          1 X1V       0.605100
     17 O17         29.6540    -0.8840    61.2470 o          1 X1V      -0.615100
     18 N18         28.0140    -1.2830    62.7460 ns         1 X1V      -0.483900
     19 C19         27.1150    -1.8870    61.7930 c3         1 X1V       0.118000
     20 C20         27.4450    -3.3440    61.4960 c3         1 X1V       0.034600
     21 S21         27.0250    -4.3700    62.9470 ss         1 X1V      -0.250000
     22 S22         28.1480    -6.0610    62.6690 ss         1 X1V      -0.251000
     23 C23         29.5930    -5.8270    63.7730 c3         1 X1V       0.070600
     24 C24         30.8800    -6.1960    63.0620 c3         1 X1V      -0.150400
     25 C25         31.3110    -5.1540    62.0520 c          1 X1V       0.608100
     26 O26         31.1470    -3.9580    62.2460 o          1 X1V      -0.610100
     27 N27         31.9130    -5.6300    60.9490 ns         1 X1V      -0.478900
     28 C28         32.5540    -4.7510    60.0100 c3         1 X1V       0.034700
     29 C29         32.8800    -5.4690    58.6870 c3         1 X1V      -0.064700
     30 C30         31.6120    -6.0370    58.0560 c3         1 X1V      -0.091100
     31 C31         33.9580    -6.5410    58.8200 c3         1 X1V      -0.091100
     32 C32         33.8130    -4.1470    60.6410 c          1 X1V       0.583100
     33 O33         34.3850    -4.6700    61.5810 o          1 X1V      -0.587100
     34 N34         34.2490    -3.0160    60.0600 ns         1 X1V      -0.507900
     35 C35         35.4130    -2.3110    60.5340 c3         1 X1V       0.154300
     36 C36         35.2030    -1.5500    61.8240 ca         1 X1V      -0.110300
     37 C37         36.3070    -1.0810    62.5300 ca         1 X1V      -0.084000
     38 C38         36.1410    -0.3680    63.7080 ca         1 X1V      -0.121000
     39 C39         34.8700    -0.1150    64.2010 ca         1 X1V      -0.058000
     40 C40         33.9350    -1.2860    62.3180 ca         1 X1V      -0.068000
     41 H1          31.6090    -0.3140    62.1670 hn         1 X1V       0.341500
     42 H2          29.8220    -0.6180    64.4490 h1         1 X1V       0.090700
     43 H3          30.1510     1.7840    64.4560 h1         1 X1V       0.073700
     44 H4          28.5310     1.4070    63.8930 h1         1 X1V       0.073700
     45 H5          30.7870     2.4450    62.3060 hn         1 X1V       0.322500
     46 H6          31.3510     3.8340    60.6600 ha         1 X1V       0.132000
     47 H7          31.2980     4.8970    58.2770 ha         1 X1V       0.146000
     48 H8          27.7310    -1.2320    63.7110 hn         1 X1V       0.324500
     49 H9          27.1510    -1.3290    60.8560 h1         1 X1V       0.068700
     50 H10         26.0980    -1.7860    62.1730 h1         1 X1V       0.068700
     51 H11         26.8670    -3.6880    60.6390 h1         1 X1V       0.085200
     52 H12         28.5040    -3.4630    61.2750 h1         1 X1V       0.085200
     53 H13         29.4520    -6.4560    64.6500 h1         1 X1V       0.085700
     54 H14         29.6070    -4.7880    64.0960 h1         1 X1V       0.085700
     55 H15         30.8100    -7.1870    62.6090 hc         1 X1V       0.071700
     56 H16         31.6770    -6.2640    63.8100 hc         1 X1V       0.071700
     57 H17         32.0980    -6.6190    60.8920 hn         1 X1V       0.322500
     58 H18         31.8610    -3.9380    59.7720 h1         1 X1V       0.083700
     59 H19         33.2640    -4.6930    58.0180 hc         1 X1V       0.051700
     60 H20         30.8340    -5.2760    57.9660 hc         1 X1V       0.040200
     61 H21         31.8260    -6.4150    57.0560 hc         1 X1V       0.040200
     62 H22         31.2040    -6.8640    58.6390 hc         1 X1V       0.040200
     63 H23         34.9070    -6.1360    59.1720 hc         1 X1V       0.040200
     64 H24         33.6650    -7.3460    59.4980 hc         1 X1V       0.040200
     65 H25         34.1420    -6.9990    57.8480 hc         1 X1V       0.040200
     66 H26         33.7020    -2.5920    59.3290 hn         1 X1V       0.318500
     67 H27         36.2440    -3.0090    60.6570 h1         1 X1V       0.059200
     68 H28         35.7110    -1.6130    59.7500 h1         1 X1V       0.059200
     69 H29         37.3060    -1.2830    62.1610 ha         1 X1V       0.112000
     70 H30         37.0080    -0.0130    64.2490 ha         1 X1V       0.117000
     71 H31         34.7450     0.4340    65.1240 ha         1 X1V       0.133000
     72 H32         33.0790    -1.6810    61.7860 ha         1 X1V       0.129000
@<TRIPOS>BOND
     1     1     2 1   
     2     1    39 ar  
     3     1    40 ar  
     4     2     3 2   
     5     2     4 1   
     6     4     5 1   
     7     4    41 1   
     8     5     6 1   
     9     5    16 1   
    10     5    42 1   
    11     6     7 1   
    12     6    43 1   
    13     6    44 1   
    14     7     8 1   
    15     7    45 1   
    16     8     9 2   
    17     8    10 1   
    18    10    11 2   
    19    10    15 1   
    20    11    12 1   
    21    11    46 1   
    22    12    13 2   
    23    12    47 1   
    24    13    14 1   
    25    13    15 1   
    26    16    17 2   
    27    16    18 1   
    28    18    19 1   
    29    18    48 1   
    30    19    20 1   
    31    19    49 1   
    32    19    50 1   
    33    20    21 1   
    34    20    51 1   
    35    20    52 1   
    36    21    22 1   
    37    22    23 1   
    38    23    24 1   
    39    23    53 1   
    40    23    54 1   
    41    24    25 1   
    42    24    55 1   
    43    24    56 1   
    44    25    26 2   
    45    25    27 1   
    46    27    28 1   
    47    27    57 1   
    48    28    29 1   
    49    28    32 1   
    50    28    58 1   
    51    29    30 1   
    52    29    31 1   
    53    29    59 1   
    54    30    60 1   
    55    30    61 1   
    56    30    62 1   
    57    31    63 1   
    58    31    64 1   
    59    31    65 1   
    60    32    33 2   
    61    32    34 1   
    62    34    35 1   
    63    34    66 1   
    64    35    36 1   
    65    35    67 1   
    66    35    68 1   
    67    36    37 ar  
    68    36    40 ar  
    69    37    38 ar  
    70    37    69 1   
    71    38    39 ar  
    72    38    70 1   
    73    39    71 1   
    74    40    72 1   
@<TRIPOS>SUBSTRUCTURE
     1 X1V         1 TEMP              0 ****  ****    0 ROOT
