@<TRIPOS>MOLECULE
X1V
   72    74     1     0     0
SMALL
No Charge or Current Charge


@<TRIPOS>ATOM
      1 C01         33.7680    -0.5120    63.3330 ca         1 X1V      -0.147600
      2 C02         32.3780    -0.2350    63.8740 c          1 X1V       0.620700
      3 O03         32.1910     0.2500    64.9820 o          1 X1V      -0.611100
      4 N04         31.3270    -0.5710    63.0500 ns         1 X1V      -0.496900
      5 C05         29.8800    -0.4720    63.3640 c3         1 X1V       0.009700
      6 C06         29.4290     0.9920    63.6160 c3         1 X1V       0.086000
      7 N07         29.6920     1.8760    62.4720 ns         1 X1V      -0.487900
      8 C08         28.7950     2.1620    61.4710 c          1 X1V       0.647700
      9 O09         27.6480     1.7420    61.4840 o          1 X1V      -0.612100
     10 C10         29.3360     3.0120    60.3970 cc         1 X1V      -0.299600
     11 C11         30.6150     3.5250    60.3030 cd         1 X1V      -0.094000
     12 C12         30.8130     4.3050    59.1300 cd         1 X1V      -0.134000
     13 C13         29.6950     4.3840    58.3410 cc         1 X1V      -0.047000
     14 Cl1         29.5780     5.2500    56.8390 cl         1 X1V      -0.140000
     15 S15         28.3420     3.4870    59.0250 ss         1 X1V       0.363000
     16 C16         29.0740    -1.1190    62.2030 c          1 X1V       0.605100
     17 O17         29.5500    -1.2940    61.0870 o          1 X1V      -0.615100
     18 N18         27.7830    -1.5030    62.5070 ns         1 X1V      -0.483900
     19 C19         26.8540    -2.1040    61.5400 c3         1 X1V       0.118000
     20 C20         27.2530    -3.5360    61.1250 c3         1 X1V       0.034600
     21 S21         26.9730    -4.7500    62.4930 ss         1 X1V      -0.250000
     22 S22         28.6490    -5.9970    62.3830 ss         1 X1V      -0.251000
     23 C23         29.7040    -5.4040    63.7780 c3         1 X1V       0.070600
     24 C24         31.1930    -5.6890    63.5100 c3         1 X1V      -0.150400
     25 C25         31.7280    -4.7780    62.4080 c          1 X1V       0.608100
     26 O26         31.8190    -3.5690    62.5560 o          1 X1V      -0.610100
     27 N27         32.1390    -5.4010    61.2520 ns         1 X1V      -0.478900
     28 C28         32.7080    -4.6760    60.0940 c3         1 X1V       0.034700
     29 C29         32.7560    -5.5660    58.8180 c3         1 X1V      -0.064700
     30 C30         31.3360    -5.9440    58.3320 c3         1 X1V      -0.091100
     31 C31         33.6460    -6.8240    58.9750 c3         1 X1V      -0.091100
     32 C32         34.0970    -4.0690    60.4610 c          1 X1V       0.583100
     33 O33         34.8580    -4.5650    61.2850 o          1 X1V      -0.587100
     34 N34         34.3970    -2.8880    59.8140 ns         1 X1V      -0.507900
     35 C35         35.4920    -1.9950    60.1990 c3         1 X1V       0.154300
     36 C36         35.2750    -1.3570    61.5740 ca         1 X1V      -0.110300
     37 C37         36.3810    -1.0840    62.3990 ca         1 X1V      -0.084000
     38 C38         36.1920    -0.5250    63.6730 ca         1 X1V      -0.121000
     39 C39         34.8960    -0.2460    64.1400 ca         1 X1V      -0.058000
     40 C40         33.9760    -1.0520    62.0390 ca         1 X1V      -0.068000
     41 H1          31.5720    -1.0390    62.1860 hn         1 X1V       0.341500
     42 H2          29.6800    -1.0630    64.2670 h1         1 X1V       0.090700
     43 H3          29.9530     1.3940    64.4920 h1         1 X1V       0.073700
     44 H4          28.3570     1.0100    63.8510 h1         1 X1V       0.073700
     45 H5          30.6170     2.2710    62.3720 hn         1 X1V       0.322500
     46 H6          31.4040     3.3620    61.0320 ha         1 X1V       0.132000
     47 H7          31.7530     4.7890    58.8830 ha         1 X1V       0.146000
     48 H8          27.4570    -1.3330    63.4510 hn         1 X1V       0.324500
     49 H9          26.8310    -1.4680    60.6440 h1         1 X1V       0.068700
     50 H10         25.8420    -2.1120    61.9670 h1         1 X1V       0.068700
     51 H11         26.6560    -3.8480    60.2590 h1         1 X1V       0.085200
     52 H12         28.3090    -3.5590    60.8310 h1         1 X1V       0.085200
     53 H13         29.3820    -5.9060    64.6990 h1         1 X1V       0.085700
     54 H14         29.5540    -4.3240    63.9090 h1         1 X1V       0.085700
     55 H15         31.3280    -6.7450    63.2480 hc         1 X1V       0.071700
     56 H16         31.7490    -5.4690    64.4280 hc         1 X1V       0.071700
     57 H17         32.0500    -6.4080    61.2100 hn         1 X1V       0.322500
     58 H18         32.0470    -3.8250    59.8850 h1         1 X1V       0.083700
     59 H19         33.2050    -4.9580    58.0220 hc         1 X1V       0.051700
     60 H20         30.7260    -5.0450    58.1800 hc         1 X1V       0.040200
     61 H21         31.3840    -6.4830    57.3780 hc         1 X1V       0.040200
     62 H22         30.8240    -6.5860    59.0600 hc         1 X1V       0.040200
     63 H23         34.6730    -6.5500    59.2460 hc         1 X1V       0.040200
     64 H24         33.2540    -7.4970    59.7470 hc         1 X1V       0.040200
     65 H25         33.6910    -7.3820    58.0320 hc         1 X1V       0.040200
     66 H26         33.7290    -2.5570    59.1280 hn         1 X1V       0.318500
     67 H27         36.4300    -2.5670    60.1970 h1         1 X1V       0.059200
     68 H28         35.5820    -1.2030    59.4440 h1         1 X1V       0.059200
     69 H29         37.3890    -1.3090    62.0560 ha         1 X1V       0.112000
     70 H30         37.0510    -0.3170    64.3060 ha         1 X1V       0.117000
     71 H31         34.7730     0.1730    65.1370 ha         1 X1V       0.133000
     72 H32         33.1330    -1.2560    61.3870 ha         1 X1V       0.129000
@<TRIPOS>BOND
     1     1     2 1   
     2     1    39 ar  
     3     1    40 ar  
     4     2     3 2   
     5     2     4 1   
     6     4     5 1   
     7     4    41 1   
     8     5     6 1   
     9     5    16 1   
    10     5    42 1   
    11     6     7 1   
    12     6    43 1   
    13     6    44 1   
    14     7     8 1   
    15     7    45 1   
    16     8     9 2   
    17     8    10 1   
    18    10    11 2   
    19    10    15 1   
    20    11    12 1   
    21    11    46 1   
    22    12    13 2   
    23    12    47 1   
    24    13    14 1   
    25    13    15 1   
    26    16    17 2   
    27    16    18 1   
    28    18    19 1   
    29    18    48 1   
    30    19    20 1   
    31    19    49 1   
    32    19    50 1   
    33    20    21 1   
    34    20    51 1   
    35    20    52 1   
    36    21    22 1   
    37    22    23 1   
    38    23    24 1   
    39    23    53 1   
    40    23    54 1   
    41    24    25 1   
    42    24    55 1   
    43    24    56 1   
    44    25    26 2   
    45    25    27 1   
    46    27    28 1   
    47    27    57 1   
    48    28    29 1   
    49    28    32 1   
    50    28    58 1   
    51    29    30 1   
    52    29    31 1   
    53    29    59 1   
    54    30    60 1   
    55    30    61 1   
    56    30    62 1   
    57    31    63 1   
    58    31    64 1   
    59    31    65 1   
    60    32    33 2   
    61    32    34 1   
    62    34    35 1   
    63    34    66 1   
    64    35    36 1   
    65    35    67 1   
    66    35    68 1   
    67    36    37 ar  
    68    36    40 ar  
    69    37    38 ar  
    70    37    69 1   
    71    38    39 ar  
    72    38    70 1   
    73    39    71 1   
    74    40    72 1   
@<TRIPOS>SUBSTRUCTURE
     1 X1V         1 TEMP              0 ****  ****    0 ROOT
