@<TRIPOS>MOLECULE
X1W
   66    70     1     0     0
SMALL
abcg2


@<TRIPOS>ATOM
      1 C10        158.7680   139.3920   122.8310 c3         1 X1W       0.282100
      2 C13        160.8230   141.2360   125.4400 ca         1 X1W      -0.110000
      3 C15        158.5610   142.0260   125.5710 ca         1 X1W      -0.110000
      4 C17        157.9350   137.6030   125.0090 cc         1 X1W      -0.378000
      5 C20        159.4360   137.0240   127.4090 c5         1 X1W       0.203500
      6 C21        159.4170   138.4760   127.9090 c5         1 X1W       0.113800
      7 C24        160.1530   136.3130   128.5560 c5         1 X1W       0.136300
      8 C28        158.5210   134.7380   132.7440 ca         1 X1W      -0.091000
      9 C01        151.6140   135.9510   125.1350 c3         1 X1W      -0.085600
     10 C03        153.4180   134.2330   125.4580 c3         1 X1W      -0.085600
     11 C04        154.0150   136.5560   124.7580 cc         1 X1W      -0.321800
     12 C05        153.8050   137.2650   123.5670 cc         1 X1W       0.416500
     13 C08        157.1130   138.0190   123.9870 cd         1 X1W       0.422000
     14 C11        159.1430   140.3310   123.9570 ca         1 X1W      -0.120300
     15 C12        160.4560   140.3720   124.4150 ca         1 X1W      -0.100000
     16 C14        159.8740   142.0630   126.0230 ca         1 X1W      -0.099000
     17 C16        158.1980   141.1660   124.5440 ca         1 X1W      -0.100000
     18 C18        157.3920   136.8090   126.0510 cc         1 X1W       0.678900
     19 C23        161.1740   137.3690   129.0190 c5         1 X1W       0.114800
     20 C27        158.4230   134.7010   131.3580 ca         1 X1W      -0.091300
     21 C29        157.4430   134.3760   133.5430 ca         1 X1W      -0.112500
     22 C30        156.2480   133.9820   132.9590 ca         1 X1W      -0.103000
     23 C31        156.1400   133.9460   131.5730 ca         1 X1W      -0.112500
     24 C32        157.2200   134.3010   130.7790 ca         1 X1W      -0.091000
     25 C34        155.3570   136.7860   125.0510 cd         1 X1W       0.467500
     26 N06        154.8840   137.8910   123.1210 nd         1 X1W      -0.634100
     27 N07        155.8220   137.5870   124.0330 na         1 X1W       0.047900
     28 N09        157.4560   138.8080   122.9640 nu         1 X1W      -0.967200
     29 N19        158.1720   136.4210   127.0900 nu         1 X1W      -0.904100
     30 N22        160.7300   138.6730   128.5030 n7         1 X1W      -0.832400
     31 N33        156.1330   136.3980   126.0700 nd         1 X1W      -0.784000
     32 O25        159.1890   136.0230   129.5450 os         1 X1W      -0.454000
     33 H1         159.5250   138.6070   122.7430 h1         1 X1W       0.058700
     34 H2         158.7740   139.9290   121.8820 h1         1 X1W       0.058700
     35 H3         161.8480   141.2530   125.7880 ha         1 X1W       0.117000
     36 H4         157.8140   142.6670   126.0220 ha         1 X1W       0.117000
     37 H5         158.9670   137.9120   125.0210 ha         1 X1W       0.136000
     38 H6         160.1000   136.9690   126.5400 h1         1 X1W       0.057700
     39 H7         159.2390   139.2040   127.1170 h1         1 X1W       0.072700
     40 H8         158.6240   138.6000   128.6540 h1         1 X1W       0.072700
     41 H9         160.6400   135.3870   128.2240 h1         1 X1W       0.054700
     42 H10        159.9840   134.1730   129.9890 h1         1 X1W       0.029700
     43 H11        160.4140   135.4510   131.1230 h1         1 X1W       0.029700
     44 H13        150.9370   135.3640   125.7560 hc         1 X1W       0.031200
     45 H14        151.3280   137.0000   125.2280 hc         1 X1W       0.031200
     46 H15        151.4510   135.6500   124.0980 hc         1 X1W       0.031200
     47 H17        152.7570   133.6310   126.0840 hc         1 X1W       0.031200
     48 H18        153.3210   133.8810   124.4290 hc         1 X1W       0.031200
     49 H19        154.4430   134.0490   125.7800 hc         1 X1W       0.031200
     50 H20        152.8850   137.3450   123.0070 h4         1 X1W       0.039800
     51 H21        161.1970   139.7150   123.9750 ha         1 X1W       0.114500
     52 H22        160.1540   142.7300   126.8280 ha         1 X1W       0.119000
     53 H23        157.1690   141.1400   124.2060 ha         1 X1W       0.114500
     54 H24        162.1720   137.1330   128.6470 h1         1 X1W       0.054700
     55 H25        161.2370   137.3740   130.1110 h1         1 X1W       0.054700
     56 H26        157.5360   134.4100   134.6210 ha         1 X1W       0.114500
     57 H27        155.4040   133.7040   133.5780 ha         1 X1W       0.113000
     58 H28        155.2110   133.6380   131.1110 ha         1 X1W       0.114500
     59 H29        157.1230   134.2600   129.7000 ha         1 X1W       0.114500
     60 H30        156.7360   139.0490   122.3020 hn         1 X1W       0.530000
     61 H31        157.6740   135.9920   127.8550 hn         1 X1W       0.511000
     62 H32        161.3690   138.9770   127.7810 hn         1 X1W       0.400000
     63 C26        159.5990   135.0680   130.4970 c3         1 X1W       0.209900
     64 C02        153.0620   135.7190   125.5550 c3         1 X1W       0.035500
     65 H12        159.4480   135.0560   133.2080 ha         1 X1W       0.114500
     66 H16        153.1560   136.0110   126.6070 hc         1 X1W       0.054700
@<TRIPOS>BOND
     1     1    14 1   
     2     1    28 1   
     3     1    33 1   
     4     1    34 1   
     5     2    15 ar  
     6     2    16 ar  
     7     2    35 1   
     8     3    16 ar  
     9     3    17 ar  
    10     3    36 1   
    11     4    13 2   
    12     4    18 1   
    13     4    37 1   
    14     5     6 1   
    15     5     7 1   
    16     5    29 1   
    17     5    38 1   
    18     6    30 1   
    19     6    39 1   
    20     6    40 1   
    21     7    19 1   
    22     7    32 1   
    23     7    41 1   
    24     8    20 ar  
    25     8    21 ar  
    26     8    65 1   
    27     9    44 1   
    28     9    45 1   
    29     9    46 1   
    30     9    64 1   
    31    10    47 1   
    32    10    48 1   
    33    10    49 1   
    34    10    64 1   
    35    11    12 1   
    36    11    25 2   
    37    11    64 1   
    38    12    26 2   
    39    12    50 1   
    40    13    27 1   
    41    13    28 1   
    42    14    15 ar  
    43    14    17 ar  
    44    15    51 1   
    45    16    52 1   
    46    17    53 1   
    47    18    29 1   
    48    18    31 2   
    49    19    30 1   
    50    19    54 1   
    51    19    55 1   
    52    20    24 ar  
    53    20    63 1   
    54    21    22 ar  
    55    21    56 1   
    56    22    23 ar  
    57    22    57 1   
    58    23    24 ar  
    59    23    58 1   
    60    24    59 1   
    61    25    27 1   
    62    25    31 1   
    63    26    27 1   
    64    28    60 1   
    65    29    61 1   
    66    30    62 1   
    67    32    63 1   
    68    42    63 1   
    69    43    63 1   
    70    64    66 1   
@<TRIPOS>SUBSTRUCTURE
     1 X1W         1 TEMP              0 ****  ****    0 ROOT
