@<TRIPOS>MOLECULE
X1W
   66    70     1     0     0
SMALL
No Charge or Current Charge


@<TRIPOS>ATOM
      1 C10        158.8410   139.3930   122.5110 c3         1 X1W       0.282100
      2 C13        160.7360   141.0460   125.4180 ca         1 X1W      -0.110000
      3 C15        158.4930   141.9820   125.3380 ca         1 X1W      -0.110000
      4 C17        158.2060   137.4100   124.7640 cc         1 X1W      -0.378000
      5 C20        159.8060   137.1370   127.2580 c5         1 X1W       0.203500
      6 C21        159.2050   138.4880   127.7550 c5         1 X1W       0.113800
      7 C24        160.3110   136.5460   128.6260 c5         1 X1W       0.136300
      8 C28        157.4020   135.3210   131.9650 ca         1 X1W      -0.091000
      9 C01        152.4680   136.6040   126.7810 c3         1 X1W      -0.085600
     10 C03        152.8420   134.4710   125.4260 c3         1 X1W      -0.085600
     11 C04        154.3970   136.4390   125.1650 cc         1 X1W      -0.321800
     12 C05        153.9510   137.1030   123.9840 cc         1 X1W       0.416500
     13 C08        157.3040   137.8410   123.8190 cd         1 X1W       0.422000
     14 C11        159.1610   140.2870   123.7100 ca         1 X1W      -0.120300
     15 C12        160.4360   140.2330   124.3110 ca         1 X1W      -0.100000
     16 C14        159.7640   141.9190   125.9340 ca         1 X1W      -0.099000
     17 C16        158.1930   141.1720   124.2290 ca         1 X1W      -0.100000
     18 C18        157.7750   136.6410   125.8900 cc         1 X1W       0.678900
     19 C23        160.7370   137.8420   129.4170 c5         1 X1W       0.114800
     20 C27        158.2250   134.5870   131.0880 ca         1 X1W      -0.091300
     21 C29        156.2120   134.7590   132.4600 ca         1 X1W      -0.112500
     22 C30        155.8370   133.4600   132.0790 ca         1 X1W      -0.103000
     23 C31        156.6510   132.7230   131.2020 ca         1 X1W      -0.112500
     24 C32        157.8410   133.2850   130.7070 ca         1 X1W      -0.091000
     25 C34        155.7350   136.6730   125.1870 cd         1 X1W       0.467500
     26 N06        154.8890   137.7290   123.2730 nd         1 X1W      -0.634100
     27 N07        155.9920   137.4290   124.0660 na         1 X1W       0.047900
     28 N09        157.6120   138.6090   122.7260 nu         1 X1W      -0.967200
     29 N19        158.6750   136.2700   126.8110 nu         1 X1W      -0.904100
     30 N22        160.2840   139.0280   128.6250 n7         1 X1W      -0.832400
     31 N33        156.5720   136.2180   126.1820 nd         1 X1W      -0.784000
     32 O25        159.2030   135.8990   129.3340 os         1 X1W      -0.454000
     33 H1         159.6840   138.7140   122.3200 h1         1 X1W       0.058700
     34 H2         158.7290   140.0270   121.6200 h1         1 X1W       0.058700
     35 H3         161.7210   140.9990   125.8760 ha         1 X1W       0.117000
     36 H4         157.7400   142.6590   125.7360 ha         1 X1W       0.117000
     37 H5         159.2530   137.6510   124.6660 ha         1 X1W       0.136000
     38 H6         160.6140   137.2640   126.5240 h1         1 X1W       0.057700
     39 H7         158.9640   139.1680   126.9260 h1         1 X1W       0.072700
     40 H8         158.2850   138.3270   128.3370 h1         1 X1W       0.072700
     41 H9         161.1320   135.8290   128.4910 h1         1 X1W       0.054700
     42 H10        160.2440   134.4020   130.3610 h1         1 X1W       0.029700
     43 H11        159.9360   135.8740   131.3030 h1         1 X1W       0.029700
     44 H13        151.8730   136.0530   127.5200 hc         1 X1W       0.031200
     45 H14        152.9660   137.4340   127.2970 hc         1 X1W       0.031200
     46 H15        151.7850   137.0230   126.0330 hc         1 X1W       0.031200
     47 H17        152.2530   133.8880   126.1450 hc         1 X1W       0.031200
     48 H18        152.1730   134.8010   124.6220 hc         1 X1W       0.031200
     49 H19        153.6010   133.8090   124.9930 hc         1 X1W       0.031200
     50 H20        152.9320   137.1450   123.6220 h4         1 X1W       0.039800
     51 H21        161.1970   139.5580   123.9230 ha         1 X1W       0.114500
     52 H22        159.9950   142.5460   126.7920 ha         1 X1W       0.119000
     53 H23        157.2060   141.2280   123.7760 ha         1 X1W       0.114500
     54 H24        161.8250   137.8740   129.5720 h1         1 X1W       0.054700
     55 H25        160.2720   137.8630   130.4120 h1         1 X1W       0.054700
     56 H26        155.5820   135.3310   133.1370 ha         1 X1W       0.114500
     57 H27        154.9160   133.0250   132.4620 ha         1 X1W       0.113000
     58 H28        156.3600   131.7180   130.9050 ha         1 X1W       0.114500
     59 H29        158.4650   132.7110   130.0260 ha         1 X1W       0.114500
     60 H30        156.7860   138.8560   122.1750 hn         1 X1W       0.530000
     61 H31        158.1920   135.7580   127.5440 hn         1 X1W       0.511000
     62 H32        161.0580   139.3310   128.0190 hn         1 X1W       0.400000
     63 C26        159.5110   135.1970   130.5500 c3         1 X1W       0.209900
     64 C02        153.5100   135.6770   126.1200 c3         1 X1W       0.035500
     65 H12        157.6850   136.3290   132.2620 ha         1 X1W       0.114500
     66 H16        154.1300   135.2710   126.9290 hc         1 X1W       0.054700
@<TRIPOS>BOND
     1     1    14 1   
     2     1    28 1   
     3     1    33 1   
     4     1    34 1   
     5     2    15 ar  
     6     2    16 ar  
     7     2    35 1   
     8     3    16 ar  
     9     3    17 ar  
    10     3    36 1   
    11     4    13 2   
    12     4    18 1   
    13     4    37 1   
    14     5     6 1   
    15     5     7 1   
    16     5    29 1   
    17     5    38 1   
    18     6    30 1   
    19     6    39 1   
    20     6    40 1   
    21     7    19 1   
    22     7    32 1   
    23     7    41 1   
    24     8    20 ar  
    25     8    21 ar  
    26     8    65 1   
    27     9    44 1   
    28     9    45 1   
    29     9    46 1   
    30     9    64 1   
    31    10    47 1   
    32    10    48 1   
    33    10    49 1   
    34    10    64 1   
    35    11    12 1   
    36    11    25 2   
    37    11    64 1   
    38    12    26 2   
    39    12    50 1   
    40    13    27 1   
    41    13    28 1   
    42    14    15 ar  
    43    14    17 ar  
    44    15    51 1   
    45    16    52 1   
    46    17    53 1   
    47    18    29 1   
    48    18    31 2   
    49    19    30 1   
    50    19    54 1   
    51    19    55 1   
    52    20    24 ar  
    53    20    63 1   
    54    21    22 ar  
    55    21    56 1   
    56    22    23 ar  
    57    22    57 1   
    58    23    24 ar  
    59    23    58 1   
    60    24    59 1   
    61    25    27 1   
    62    25    31 1   
    63    26    27 1   
    64    28    60 1   
    65    29    61 1   
    66    30    62 1   
    67    32    63 1   
    68    42    63 1   
    69    43    63 1   
    70    64    66 1   
@<TRIPOS>SUBSTRUCTURE
     1 X1W         1 TEMP              0 ****  ****    0 ROOT
