@<TRIPOS>MOLECULE
X1X
   22    22     1     0     0
SMALL
bcc


@<TRIPOS>ATOM
      1 O6A         23.9840    30.1830    61.9870 o          1 X1X      -0.813800
      2 C6          23.3000    29.5790    61.1220 c          1 X1X       0.946600
      3 O6B         22.6670    28.5300    61.2850 o          1 X1X      -0.813800
      4 C5          23.2340    30.2120    59.7070 c6         1 X1X      -0.033900
      5 O5          21.8820    30.6150    59.5240 os         1 X1X      -0.387600
      6 C1          21.5870    31.1480    58.2660 c6         1 X1X       0.296900
      7 O1          21.7670    30.2270    57.2320 oh         1 X1X      -0.636800
      8 C2          22.4510    32.3760    57.9530 c6         1 X1X       0.143100
      9 O2          22.0980    33.4500    58.7880 oh         1 X1X      -0.539800
     10 C3          23.9200    32.0180    58.1390 c6         1 X1X       0.154100
     11 O3          24.6950    33.1640    57.8870 oh         1 X1X      -0.585800
     12 C4          24.2070    31.3740    59.4950 c6         1 X1X       0.127100
     13 O4          24.1630    32.3180    60.5260 oh         1 X1X      -0.622800
     14 H5          23.4930    29.4280    58.9820 h1         1 X1X       0.027700
     15 H1          20.5350    31.4560    58.3360 h2         1 X1X       0.037700
     16 HO1         21.1480    29.4990    57.3520 ho         1 X1X       0.412000
     17 H2          22.2930    32.6370    56.8960 h1         1 X1X       0.023700
     18 HO2         21.2320    33.7670    58.5120 ho         1 X1X       0.376000
     19 H3          24.1310    31.2390    57.3910 h1         1 X1X       0.026700
     20 HO3         25.6220    32.9080    57.9160 ho         1 X1X       0.393000
     21 H4          25.2120    30.9160    59.4270 h1         1 X1X       0.005700
     22 HO4         24.1790    31.7460    61.3260 ho         1 X1X       0.466000
@<TRIPOS>BOND
     1     1     2 1   
     2     2     3 1   
     3     2     4 1   
     4     4     5 1   
     5     4    12 1   
     6     4    14 1   
     7     5     6 1   
     8     6     7 1   
     9     6     8 1   
    10     6    15 1   
    11     7    16 1   
    12     8     9 1   
    13     8    10 1   
    14     8    17 1   
    15     9    18 1   
    16    10    11 1   
    17    10    12 1   
    18    10    19 1   
    19    11    20 1   
    20    12    13 1   
    21    12    21 1   
    22    13    22 1   
@<TRIPOS>SUBSTRUCTURE
     1 X1X         1 TEMP              0 ****  ****    0 ROOT
