@<TRIPOS>MOLECULE
X1X
   22    22     1     0     0
SMALL
No Charge or Current Charge


@<TRIPOS>ATOM
      1 O6A         22.8820    29.5840    62.0390 o          1 X1X      -0.708500
      2 C6          23.5830    29.3410    61.0620 c          1 X1X       0.736000
      3 O6B         24.0330    28.2100    60.9170 o          1 X1X      -0.708500
      4 C5          23.2360    30.0930    59.7300 c6         1 X1X      -0.010700
      5 O5          21.9030    30.7180    59.7150 os         1 X1X      -0.434000
      6 C1          21.5170    31.3180    58.4620 c6         1 X1X       0.343300
      7 O1          21.3940    30.2650    57.5080 oh         1 X1X      -0.759000
      8 C2          22.5590    32.4170    58.0290 c6         1 X1X       0.166300
      9 O2          22.5530    33.5430    58.9500 oh         1 X1X      -0.662000
     10 C3          23.9920    31.7800    57.9950 c6         1 X1X       0.177300
     11 O3          24.9800    32.7610    57.6120 oh         1 X1X      -0.708000
     12 C4          24.3280    31.1490    59.3950 c6         1 X1X       0.150300
     13 O4          24.3640    32.1780    60.4010 oh         1 X1X      -0.745000
     14 H5          23.2630    29.3250    58.9440 h1         1 X1X       0.027700
     15 H1          20.5340    31.7980    58.5900 h2         1 X1X       0.037700
     16 HO1         20.8960    29.5630    57.9830 ho         1 X1X       0.511000
     17 H2          22.3030    32.7650    57.0170 h1         1 X1X       0.023700
     18 HO2         21.7490    34.0760    58.7430 ho         1 X1X       0.475000
     19 H3          23.9930    30.9700    57.2510 h1         1 X1X       0.026700
     20 HO3         24.8340    33.5220    58.2200 ho         1 X1X       0.492000
     21 H4          25.3020    30.6430    59.3390 h1         1 X1X       0.005700
     22 HO4         23.6030    32.7730    60.1470 ho         1 X1X       0.565000
@<TRIPOS>BOND
     1     1     2 1   
     2     2     3 1   
     3     2     4 1   
     4     4     5 1   
     5     4    12 1   
     6     4    14 1   
     7     5     6 1   
     8     6     7 1   
     9     6     8 1   
    10     6    15 1   
    11     7    16 1   
    12     8     9 1   
    13     8    10 1   
    14     8    17 1   
    15     9    18 1   
    16    10    11 1   
    17    10    12 1   
    18    10    19 1   
    19    11    20 1   
    20    12    13 1   
    21    12    21 1   
    22    13    22 1   
@<TRIPOS>SUBSTRUCTURE
     1 X1X         1 TEMP              0 ****  ****    0 ROOT
