@<TRIPOS>MOLECULE
X1Y
   34    35     1     0     0
SMALL
No Charge or Current Charge


@<TRIPOS>ATOM
      1 N1         -22.6420     3.0290    28.5730 n3         1 X1Y      -0.829600
      2 C4         -23.7050     2.5190    29.4980 c6         1 X1Y       0.209500
      3 C5         -23.1110     1.8060    30.7460 c6         1 X1Y      -0.092400
      4 C6         -24.2270     1.1360    31.5870 c6         1 X1Y      -0.073400
      5 C7         -25.3100     2.1620    32.0030 c6         1 X1Y      -0.077400
      6 C8         -25.8910     2.9000    30.7710 c6         1 X1Y      -0.073400
      7 C10        -21.6650     3.9460    29.1300 c6         1 X1Y       0.666700
      8 C1         -20.8420     4.3860    26.8330 c6         1 X1Y       0.421500
      9 C2         -21.9670     3.5100    26.2570 c6         1 X1Y      -0.104400
     10 C3         -23.1480     3.4160    27.2310 c6         1 X1Y       0.196800
     11 C9         -24.7680     3.5710    29.9400 c6         1 X1Y      -0.092400
     12 N2         -20.5540     4.1090    28.2310 n7         1 X1Y      -0.921400
     13 O1         -21.1940     5.7290    26.8770 oh         1 X1Y      -0.660000
     14 O2         -22.2230     5.2100    29.2780 oh         1 X1Y      -0.676000
     15 H2         -24.2580     1.7420    28.9480 h1         1 X1Y       0.056700
     16 H3         -22.3830     1.0470    30.4310 hc         1 X1Y       0.042200
     17 H4         -22.5700     2.5210    31.3800 hc         1 X1Y       0.042200
     18 H5         -24.6900     0.3240    31.0080 hc         1 X1Y       0.041450
     19 H6         -23.7910     0.6700    32.4820 hc         1 X1Y       0.041450
     20 H7         -24.8770     2.8930    32.7010 hc         1 X1Y       0.040200
     21 H8         -26.1170     1.6530    32.5470 hc         1 X1Y       0.040200
     22 H9         -26.6160     3.6580    31.0990 hc         1 X1Y       0.041450
     23 H10        -26.4450     2.1910    30.1410 hc         1 X1Y       0.041450
     24 H11        -21.3190     3.6500    30.1310 h3         1 X1Y       0.048700
     25 H12        -19.9220     4.2650    26.2400 h2         1 X1Y       0.034700
     26 H13        -22.3000     3.9010    25.2870 hc         1 X1Y       0.055200
     27 H14        -21.5740     2.5030    26.0690 hc         1 X1Y       0.055200
     28 H15        -23.6800     4.3780    27.2640 h1         1 X1Y       0.042200
     29 H16        -23.8580     2.6660    26.8510 h1         1 X1Y       0.042200
     30 H17        -24.3100     4.3550    30.5560 hc         1 X1Y       0.042200
     31 H18        -25.2120     4.0640    29.0650 hc         1 X1Y       0.042200
     32 H19        -20.0960     3.1980    28.2590 hn         1 X1Y       0.444000
     33 H21        -21.4870     5.7490    27.8230 ho         1 X1Y       0.466000
     34 H22        -23.1300     4.9850    29.5480 ho         1 X1Y       0.446000
@<TRIPOS>BOND
     1     1     2 1   
     2     1     7 1   
     3     1    10 1   
     4     2     3 1   
     5     2    11 1   
     6     2    15 1   
     7     3     4 1   
     8     3    16 1   
     9     3    17 1   
    10     4     5 1   
    11     4    18 1   
    12     4    19 1   
    13     5     6 1   
    14     5    20 1   
    15     5    21 1   
    16     6    11 1   
    17     6    22 1   
    18     6    23 1   
    19     7    12 1   
    20     7    14 1   
    21     7    24 1   
    22     8     9 1   
    23     8    12 1   
    24     8    13 1   
    25     8    25 1   
    26     9    10 1   
    27     9    26 1   
    28     9    27 1   
    29    10    28 1   
    30    10    29 1   
    31    11    30 1   
    32    11    31 1   
    33    12    32 1   
    34    13    33 1   
    35    14    34 1   
@<TRIPOS>SUBSTRUCTURE
     1 X1Y         1 TEMP              0 ****  ****    0 ROOT
