@<TRIPOS>MOLECULE
X1Y
   34    35     1     0     0
SMALL
bcc


@<TRIPOS>ATOM
      1 N1         -22.7060     3.0510    28.6100 n3         1 X1Y      -0.829600
      2 C4         -23.7290     2.5270    29.5080 c6         1 X1Y       0.209500
      3 C5         -23.1440     1.9260    30.7850 c6         1 X1Y      -0.092400
      4 C6         -24.2190     1.1950    31.5860 c6         1 X1Y      -0.073400
      5 C7         -25.3900     2.1150    31.9150 c6         1 X1Y      -0.077400
      6 C8         -25.9620     2.7510    30.6530 c6         1 X1Y      -0.073400
      7 C10        -21.6440     3.8570    29.1460 c6         1 X1Y       0.643500
      8 C1         -20.9080     4.3590    26.8410 c6         1 X1Y       0.398300
      9 C2         -22.0720     3.5300    26.3200 c6         1 X1Y      -0.104400
     10 C3         -23.2070     3.5110    27.3280 c6         1 X1Y       0.196800
     11 C9         -24.8790     3.4820    29.8630 c6         1 X1Y      -0.092400
     12 N2         -20.5640     4.0470    28.2120 n7         1 X1Y      -0.866200
     13 O1         -21.2530     5.7160    26.7130 oh         1 X1Y      -0.597800
     14 O2         -22.0370     5.1570    29.5550 oh         1 X1Y      -0.613800
     15 H2         -24.1880     1.6950    28.9560 h1         1 X1Y       0.056700
     16 H3         -22.3280     1.2420    30.5360 hc         1 X1Y       0.042200
     17 H4         -22.7160     2.7100    31.4210 hc         1 X1Y       0.042200
     18 H5         -24.5790     0.3350    31.0100 hc         1 X1Y       0.041450
     19 H6         -23.7840     0.7930    32.5030 hc         1 X1Y       0.041450
     20 H7         -25.0470     2.9050    32.5920 hc         1 X1Y       0.040200
     21 H8         -26.1660     1.5630    32.4500 hc         1 X1Y       0.040200
     22 H9         -26.7700     3.4410    30.9050 hc         1 X1Y       0.041450
     23 H10        -26.4040     1.9740    30.0200 hc         1 X1Y       0.041450
     24 H11        -21.2190     3.3170    29.9980 h3         1 X1Y       0.048700
     25 H12        -20.0090     4.1320    26.2520 h2         1 X1Y       0.034700
     26 H13        -22.4140     3.9140    25.3560 hc         1 X1Y       0.055200
     27 H14        -21.7190     2.5090    26.1510 hc         1 X1Y       0.055200
     28 H15        -23.6800     4.5020    27.3800 h1         1 X1Y       0.042200
     29 H16        -23.9810     2.8160    26.9950 h1         1 X1Y       0.042200
     30 H17        -24.5160     4.3250    30.4630 hc         1 X1Y       0.042200
     31 H18        -25.3080     3.9150    28.9560 hc         1 X1Y       0.042200
     32 H19        -19.9440     3.2500    28.2420 hn         1 X1Y       0.388800
     33 H21        -20.6920     6.2110    27.3190 ho         1 X1Y       0.427000
     34 H22        -22.7030     5.0720    30.2450 ho         1 X1Y       0.407000
@<TRIPOS>BOND
     1     1     2 1   
     2     1     7 1   
     3     1    10 1   
     4     2     3 1   
     5     2    11 1   
     6     2    15 1   
     7     3     4 1   
     8     3    16 1   
     9     3    17 1   
    10     4     5 1   
    11     4    18 1   
    12     4    19 1   
    13     5     6 1   
    14     5    20 1   
    15     5    21 1   
    16     6    11 1   
    17     6    22 1   
    18     6    23 1   
    19     7    12 1   
    20     7    14 1   
    21     7    24 1   
    22     8     9 1   
    23     8    12 1   
    24     8    13 1   
    25     8    25 1   
    26     9    10 1   
    27     9    26 1   
    28     9    27 1   
    29    10    28 1   
    30    10    29 1   
    31    11    30 1   
    32    11    31 1   
    33    12    32 1   
    34    13    33 1   
    35    14    34 1   
@<TRIPOS>SUBSTRUCTURE
     1 X1Y         1 TEMP              0 ****  ****    0 ROOT
