@<TRIPOS>MOLECULE
X20
   58    61     1     0     0
SMALL
No Charge or Current Charge


@<TRIPOS>ATOM
      1 C           -3.6760     1.1530    -0.1310 c          1 X20       0.676100
      2 N           -3.0590    -0.1040     0.1100 n          1 X20      -0.080600
      3 O           -3.0730     2.1050    -0.6070 o          1 X20      -0.495000
      4 Cl           3.5300     3.1350     0.7220 cl         1 X20      -0.210000
      5 C1          -1.6570    -0.3570     0.2720 ca         1 X20       0.006000
      6 N1           1.8500     0.6960     0.0760 nu         1 X20      -0.935900
      7 O1           8.2780     0.7390    -0.2820 o          1 X20      -0.597100
      8 C2          -0.5470     0.4530    -0.0030 ca         1 X20      -0.224000
      9 N2           8.0840    -1.4550     0.3660 n          1 X20      -0.409800
     10 O2          -5.9110    -1.0400    -0.4430 os         1 X20      -0.246000
     11 C3           0.7250    -0.0660     0.2940 ca         1 X20       0.629900
     12 N3           0.9380    -1.2720     0.8460 nb         1 X20      -0.742000
     13 O3          -4.9130     1.2410     0.4690 os         1 X20      -0.451100
     14 C4           3.2310     0.4490     0.0850 ca         1 X20       0.356000
     15 N4          -6.8380    -3.0000     0.2620 nc         1 X20      -0.675000
     16 C5           3.7610    -0.8140    -0.2370 ca         1 X20      -0.155000
     17 C6           5.1490    -1.0350    -0.2430 ca         1 X20      -0.049000
     18 C7           6.0430     0.0100     0.0790 ca         1 X20      -0.181600
     19 C8           7.5460    -0.1810     0.0640 c          1 X20       0.622700
     20 C9           9.5220    -1.7100     0.1260 c3         1 X20       0.087800
     21 C10          7.4330    -2.3400     1.3610 c3         1 X20       0.087800
     22 C11          5.5150     1.2880     0.3550 ca         1 X20      -0.020000
     23 C12          4.1270     1.5080     0.3610 ca         1 X20       0.033000
     24 C13         -0.1440    -2.0430     1.1130 ca         1 X20       0.434900
     25 C14         -1.4440    -1.5940     0.8340 ca         1 X20      -0.201800
     26 C15         -2.7150    -2.2460     1.0190 cc         1 X20      -0.154200
     27 C16         -3.6330    -1.3370     0.5140 cd         1 X20      -0.062200
     28 C17         -5.0120    -1.7400     0.2960 cd         1 X20       0.179800
     29 C18         -5.5470    -2.9290     0.7110 cc         1 X20       0.249900
     30 C19         -7.0070    -1.8620    -0.4120 cd         1 X20       0.431900
     31 C20         -5.7180     2.4400     0.4480 c3         1 X20       0.226000
     32 C21         -6.0410     2.8250    -1.0180 c3         1 X20      -0.111433
     33 C22         -7.0140     2.0350     1.1830 c3         1 X20      -0.111433
     34 C23         -5.0000     3.5680     1.2330 c3         1 X20      -0.111433
     35 HN1          1.6280     1.6860     0.0130 hn         1 X20       0.511000
     36 H2          -0.6490     1.4420    -0.4340 ha         1 X20       0.156000
     37 H5           3.0980    -1.6290    -0.5080 ha         1 X20       0.157000
     38 H6           5.5210    -2.0160    -0.5290 ha         1 X20       0.121000
     39 H9          10.1240    -1.1560     0.8570 h1         1 X20       0.041367
     40 H9A          9.7360    -2.7820     0.2220 h1         1 X20       0.041367
     41 H9B          9.7950    -1.3880    -0.8870 h1         1 X20       0.041367
     42 H10          6.9560    -3.1850     0.8490 h1         1 X20       0.041367
     43 H10A         8.1810    -2.7300     2.0630 h1         1 X20       0.041367
     44 H10B         6.6790    -1.7890     1.9370 h1         1 X20       0.041367
     45 H11          6.1830     2.1180     0.5770 ha         1 X20       0.143000
     46 H13          0.0380    -3.0230     1.5540 h4         1 X20       0.026100
     47 H15         -2.8950    -3.2680     1.3510 ha         1 X20       0.216000
     48 H18         -5.1090    -3.7310     1.2890 h4         1 X20       0.054100
     49 H19         -7.9030    -1.5320    -0.9270 h5         1 X20       0.084100
     50 H21         -6.3980     1.9530    -1.5790 hc         1 X20       0.054367
     51 H21A        -6.8260     3.5900    -1.0480 hc         1 X20       0.054367
     52 H21B        -5.1680     3.2370    -1.5360 hc         1 X20       0.054367
     53 H22         -6.7950     1.7080     2.2070 hc         1 X20       0.054367
     54 H22A        -7.7130     2.8780     1.2380 hc         1 X20       0.054367
     55 H22B        -7.5170     1.2110     0.6620 hc         1 X20       0.054367
     56 H23         -4.1630     3.9940     0.6690 hc         1 X20       0.054367
     57 H23A        -5.6950     4.3890     1.4430 hc         1 X20       0.054367
     58 H23B        -4.6190     3.1940     2.1900 hc         1 X20       0.054367
@<TRIPOS>BOND
     1     1     2 1   
     2     1     3 2   
     3     1    13 1   
     4     2     5 1   
     5     2    27 1   
     6     4    23 1   
     7     5     8 ar  
     8     5    25 ar  
     9     6    11 1   
    10     6    14 1   
    11     6    35 1   
    12     7    19 2   
    13     8    11 ar  
    14     8    36 1   
    15     9    19 1   
    16     9    20 1   
    17     9    21 1   
    18    10    28 1   
    19    10    30 1   
    20    11    12 ar  
    21    12    24 ar  
    22    13    31 1   
    23    14    16 ar  
    24    14    23 ar  
    25    15    29 1   
    26    15    30 2   
    27    16    17 ar  
    28    16    37 1   
    29    17    18 ar  
    30    17    38 1   
    31    18    19 1   
    32    18    22 ar  
    33    20    39 1   
    34    20    40 1   
    35    20    41 1   
    36    21    42 1   
    37    21    43 1   
    38    21    44 1   
    39    22    23 ar  
    40    22    45 1   
    41    24    25 ar  
    42    24    46 1   
    43    25    26 1   
    44    26    27 2   
    45    26    47 1   
    46    27    28 1   
    47    28    29 2   
    48    29    48 1   
    49    30    49 1   
    50    31    32 1   
    51    31    33 1   
    52    31    34 1   
    53    32    50 1   
    54    32    51 1   
    55    32    52 1   
    56    33    53 1   
    57    33    54 1   
    58    33    55 1   
    59    34    56 1   
    60    34    57 1   
    61    34    58 1   
@<TRIPOS>SUBSTRUCTURE
     1 X20         1 TEMP              0 ****  ****    0 ROOT
