@<TRIPOS>MOLECULE
X21
   62    66     1     0     0
SMALL
No Charge or Current Charge


@<TRIPOS>ATOM
      1 C            8.4560     4.0750     0.7290 c3         1 X21       0.073900
      2 N            7.4260     3.0290     0.6630 na         1 X21       0.132800
      3 O            3.4010    -1.9540     0.0410 os         1 X21      -0.465100
      4 C1           6.5400     1.1280     0.9140 cc         1 X21       0.298900
      5 N1           7.6800     1.7520     1.1440 nd         1 X21      -0.529800
      6 O1           5.3870    -0.9970    -0.6060 o          1 X21      -0.486000
      7 C2           6.1280     3.1730     0.1610 cd         1 X21      -0.146000
      8 N2          -0.4150     1.6560    -0.5430 nb         1 X21      -0.739000
      9 C3           5.5630     1.9380     0.3000 cc         1 X21      -0.173800
     10 N3          -1.3550    -0.4320    -0.2930 nu         1 X21      -0.940900
     11 C4           4.1950     1.6280    -0.0590 cc         1 X21       0.104400
     12 N4          -8.9940     1.5550     0.2850 nc         1 X21      -0.670000
     13 C5           3.2610     2.5990    -0.3480 cd         1 X21      -0.203200
     14 N5          -8.0760    -0.0960    -0.9040 na         1 X21      -0.159500
     15 C6           1.9640     1.9430    -0.3850 ca         1 X21      -0.184800
     16 N6           3.5830     0.3580    -0.0160 n          1 X21      -0.086600
     17 C7           0.6740     2.4600    -0.5810 ca         1 X21       0.422900
     18 C8          -0.2210     0.3490    -0.2960 ca         1 X21       0.618900
     19 C9          -2.7370    -0.1810    -0.2840 ca         1 X21       0.346000
     20 C10         -3.6240    -1.1460    -0.8120 ca         1 X21       0.042000
     21 C11         -5.0130    -0.9290    -0.7980 ca         1 X21      -0.065000
     22 C12         -5.5640     0.2530    -0.2520 ca         1 X21      -0.041000
     23 C13         -7.0270     0.5230    -0.2150 cd         1 X21      -0.152000
     24 C14         -7.6430     1.5450     0.4720 cc         1 X21       0.244900
     25 C15         -9.2480     0.5550    -0.5430 cd         1 X21       0.390400
     26 C17         -4.6700     1.1940     0.3070 ca         1 X21      -0.059000
     27 C18         -3.2810     0.9800     0.2920 ca         1 X21      -0.140000
     28 C19          1.0390    -0.2440    -0.1030 ca         1 X21      -0.222000
     29 C20          2.1650     0.5950    -0.1560 ca         1 X21      -0.001000
     30 C21          4.2400    -0.8890    -0.1970 c          1 X21       0.670100
     31 C22          3.8090    -3.3330    -0.1140 c3         1 X21       0.225000
     32 C23          4.9690    -3.6480     0.8650 c3         1 X21      -0.111767
     33 C24          2.5540    -4.1410     0.2810 c3         1 X21      -0.111767
     34 C25          4.1670    -3.6090    -1.5970 c3         1 X21      -0.111767
     35 H            9.3720     3.7190     0.2430 h1         1 X21       0.056700
     36 HA           8.1010     4.9770     0.2160 h1         1 X21       0.056700
     37 HB           8.6680     4.3140     1.7780 h1         1 X21       0.056700
     38 H1           6.4510     0.1060     1.2510 h4         1 X21       0.047100
     39 H2           5.7480     4.1050    -0.2390 h4         1 X21       0.155000
     40 HN3         -1.1360    -1.4110    -0.4550 hn         1 X21       0.504000
     41 H5           3.4420     3.6690    -0.4010 ha         1 X21       0.211000
     42 H7           0.5070     3.5210    -0.7640 h4         1 X21       0.025100
     43 H11         -5.6430    -1.7150    -1.1920 ha         1 X21       0.124000
     44 H14         -7.1950     2.2880     1.1190 h4         1 X21       0.039100
     45 H15        -10.2170     0.2650    -0.9350 h5         1 X21       0.052100
     46 H16         -7.8310    -2.1310    -1.4140 h1         1 X21       0.054033
     47 H16A        -8.9710    -1.2290    -2.4460 h1         1 X21       0.054033
     48 H16B        -7.2200    -0.9590    -2.6330 h1         1 X21       0.054033
     49 H17         -5.0400     2.1130     0.7530 ha         1 X21       0.124000
     50 H18         -2.6310     1.7200     0.7450 ha         1 X21       0.157000
     51 H19          1.1090    -1.3070     0.0860 ha         1 X21       0.140000
     52 H23          4.7400    -3.2790     1.8720 hc         1 X21       0.053367
     53 H23A         5.1300    -4.7300     0.9300 hc         1 X21       0.053367
     54 H23B         5.9140    -3.2010     0.5400 hc         1 X21       0.053367
     55 H24          1.7120    -3.9040    -0.3800 hc         1 X21       0.053367
     56 H24A         2.7450    -5.2190     0.2120 hc         1 X21       0.053367
     57 H24B         2.2530    -3.9150     1.3120 hc         1 X21       0.053367
     58 H25          5.1320    -3.1740    -1.8750 hc         1 X21       0.053367
     59 H25A         4.2360    -4.6880    -1.7780 hc         1 X21       0.053367
     60 H25B         3.3980    -3.2030    -2.2650 hc         1 X21       0.053367
     61 C16         -8.0160    -1.1700    -1.9090 c3         1 X21       0.056900
     62 Cl          -3.0140    -2.6590    -1.4990 cl         1 X21      -0.221000
@<TRIPOS>BOND
     1     1     2 1   
     2     1    35 1   
     3     1    36 1   
     4     1    37 1   
     5     2     5 1   
     6     2     7 1   
     7     3    30 1   
     8     3    31 1   
     9     4     5 2   
    10     4     9 1   
    11     4    38 1   
    12     6    30 2   
    13     7     9 2   
    14     7    39 1   
    15     8    17 ar  
    16     8    18 ar  
    17     9    11 1   
    18    10    18 1   
    19    10    19 1   
    20    10    40 1   
    21    11    13 2   
    22    11    16 1   
    23    12    24 1   
    24    12    25 2   
    25    13    15 1   
    26    13    41 1   
    27    14    23 1   
    28    14    25 1   
    29    14    61 1   
    30    15    17 ar  
    31    15    29 ar  
    32    16    29 1   
    33    16    30 1   
    34    17    42 1   
    35    18    28 ar  
    36    19    20 ar  
    37    19    27 ar  
    38    20    21 ar  
    39    20    62 1   
    40    21    22 ar  
    41    21    43 1   
    42    22    23 1   
    43    22    26 ar  
    44    23    24 2   
    45    24    44 1   
    46    25    45 1   
    47    26    27 ar  
    48    26    49 1   
    49    27    50 1   
    50    28    29 ar  
    51    28    51 1   
    52    31    32 1   
    53    31    33 1   
    54    31    34 1   
    55    32    52 1   
    56    32    53 1   
    57    32    54 1   
    58    33    55 1   
    59    33    56 1   
    60    33    57 1   
    61    34    58 1   
    62    34    59 1   
    63    34    60 1   
    64    46    61 1   
    65    47    61 1   
    66    48    61 1   
@<TRIPOS>SUBSTRUCTURE
     1 X21         1 TEMP              0 ****  ****    0 ROOT
