@<TRIPOS>MOLECULE
X22
   72    75     1     0     0
SMALL
No Charge or Current Charge


@<TRIPOS>ATOM
      1 CAA        -11.9560    45.3890   -35.2300 c3         1 X22      -0.092100
      2 CB         -12.6020    45.1400   -33.8470 c3         1 X22      -0.060400
      3 CA         -12.7040    46.3870   -32.9270 c3         1 X22       0.089500
      4 N          -13.6480    47.3970   -33.5170 n8         1 X22      -0.980200
      5 C          -11.2810    46.9400   -32.5460 c          1 X22       0.563100
      6 O          -10.7180    47.8270   -33.1770 o          1 X22      -0.626100
      7 NAX        -10.7270    46.3930   -31.4090 ns         1 X22      -0.477900
      8 CBI         -9.4370    46.7970   -30.8060 c3         1 X22       0.050700
      9 CBA         -8.8170    45.6060   -30.0120 c          1 X22       0.550000
     10 OAE         -9.4280    44.5510   -29.8690 o          1 X22      -0.581000
     11 NBJ         -7.5430    45.7680   -29.4250 n          1 X22      -0.398800
     12 CBE         -9.5810    48.1060   -29.9670 c3         1 X22      -0.070700
     13 CAR        -10.1590    47.8920   -28.5380 c3         1 X22       0.156600
     14 OAF        -11.4970    47.3760   -28.6000 oh         1 X22      -0.689000
     15 CAS         -8.2600    48.9180   -29.9420 c3         1 X22      -0.067400
     16 CAT         -7.0780    48.2560   -29.2000 c3         1 X22      -0.099400
     17 CBF         -6.6230    46.8860   -29.7540 c5         1 X22       0.129700
     18 CAU         -5.3050    46.4310   -29.0550 c5         1 X22      -0.090400
     19 CAV         -5.3900    44.8910   -29.1360 c5         1 X22      -0.074400
     20 CBG         -6.8690    44.6380   -28.7250 c5         1 X22       0.026700
     21 CAZ         -7.0180    44.6740   -27.1700 c          1 X22       0.590100
     22 OAD         -7.4890    45.5800   -26.4940 o          1 X22      -0.599100
     23 NAW         -6.5750    43.4730   -26.6510 ns         1 X22      -0.497900
     24 CBH         -6.4770    43.1380   -25.2270 c3         1 X22       0.222300
     25 CBC         -5.5250    44.0980   -24.5020 ca         1 X22      -0.093800
     26 CAO         -4.1350    43.8630   -24.5500 ca         1 X22      -0.090500
     27 CAK         -3.2410    44.7290   -23.8970 ca         1 X22      -0.114250
     28 CAH         -3.7280    45.8410   -23.1900 ca         1 X22      -0.105500
     29 CAL         -5.1100    46.0860   -23.1380 ca         1 X22      -0.114250
     30 CAP         -6.0040    45.2200   -23.7910 ca         1 X22      -0.090500
     31 CBB         -7.8240    42.9190   -24.5110 ca         1 X22      -0.093800
     32 CAM         -7.8210    42.6200   -23.1310 ca         1 X22      -0.090500
     33 CAI         -9.0250    42.3970   -22.4400 ca         1 X22      -0.114250
     34 CAG        -10.2490    42.4580   -23.1220 ca         1 X22      -0.105500
     35 CAJ        -10.2670    42.7370   -24.4980 ca         1 X22      -0.114250
     36 CAN         -9.0650    42.9610   -25.1910 ca         1 X22      -0.090500
     37 HAA        -12.5220    46.1320   -35.8050 hc         1 X22       0.039367
     38 HAAA       -10.9240    45.7430   -35.1260 hc         1 X22       0.039367
     39 HAAB       -11.9360    44.4590   -35.8100 hc         1 X22       0.039367
     40 HB         -13.6070    44.7250   -33.9970 hc         1 X22       0.048200
     41 HBA        -12.0270    44.3650   -33.3270 hc         1 X22       0.048200
     42 HA         -13.1590    46.0500   -31.9850 h1         1 X22       0.062700
     43 HN         -13.7480    48.1860   -32.8660 hn         1 X22       0.404500
     44 HNA        -13.1900    47.8290   -34.3290 hn         1 X22       0.404500
     45 HNAX       -11.2660    45.6820   -30.9260 hn         1 X22       0.338500
     46 HBI         -8.7470    46.9950   -31.6370 h1         1 X22       0.086700
     47 HBE        -10.2950    48.7500   -30.4960 hc         1 X22       0.072700
     48 HAR         -9.5130    47.2110   -27.9680 h1         1 X22       0.042700
     49 HARA       -10.1590    48.8560   -28.0100 h1         1 X22       0.042700
     50 HOAF       -11.8160    47.2940   -27.6730 ho         1 X22       0.453000
     51 HAS         -7.9540    49.1340   -30.9740 hc         1 X22       0.048200
     52 HASA        -8.4560    49.8940   -29.4790 hc         1 X22       0.048200
     53 HAT         -6.2330    48.9540   -29.2490 hc         1 X22       0.063200
     54 HATA        -7.3230    48.1640   -28.1340 hc         1 X22       0.063200
     55 HBF         -6.4750    46.9560   -30.8410 h1         1 X22       0.055700
     56 HAU         -4.4150    46.8290   -29.5540 hc         1 X22       0.062200
     57 HAUA        -5.2610    46.7640   -28.0110 hc         1 X22       0.062200
     58 HAV         -5.2020    44.5410   -30.1580 hc         1 X22       0.059200
     59 HAVA        -4.6630    44.3910   -28.4850 hc         1 X22       0.059200
     60 HBG         -7.2130    43.6590   -29.0840 h1         1 X22       0.080700
     61 HNAW        -6.2280    42.7920   -27.3150 hn         1 X22       0.318500
     62 HBH         -5.9870    42.1550   -25.2010 h1         1 X22       0.056700
     63 HAO         -3.7450    43.0070   -25.0980 ha         1 X22       0.118250
     64 HAK         -2.1710    44.5390   -23.9400 ha         1 X22       0.111000
     65 HAH         -3.0360    46.5110   -22.6850 ha         1 X22       0.111500
     66 HAL         -5.4890    46.9480   -22.5940 ha         1 X22       0.111000
     67 HAP         -7.0710    45.4280   -23.7480 ha         1 X22       0.118250
     68 HAM         -6.8800    42.5620   -22.5880 ha         1 X22       0.118250
     69 HAI         -9.0060    42.1740   -21.3750 ha         1 X22       0.111000
     70 HAG        -11.1810    42.2850   -22.5880 ha         1 X22       0.111500
     71 HAJ        -11.2150    42.7760   -25.0300 ha         1 X22       0.111000
     72 HAN         -9.1130    43.1620   -26.2570 ha         1 X22       0.118250
@<TRIPOS>BOND
     1     1     2 1   
     2     1    37 1   
     3     1    38 1   
     4     1    39 1   
     5     2     3 1   
     6     2    40 1   
     7     2    41 1   
     8     3     4 1   
     9     3     5 1   
    10     3    42 1   
    11     4    43 1   
    12     4    44 1   
    13     5     6 2   
    14     5     7 1   
    15     7     8 1   
    16     7    45 1   
    17     8     9 1   
    18     8    12 1   
    19     8    46 1   
    20     9    10 2   
    21     9    11 1   
    22    11    17 1   
    23    11    20 1   
    24    12    13 1   
    25    12    15 1   
    26    12    47 1   
    27    13    14 1   
    28    13    48 1   
    29    13    49 1   
    30    14    50 1   
    31    15    16 1   
    32    15    51 1   
    33    15    52 1   
    34    16    17 1   
    35    16    53 1   
    36    16    54 1   
    37    17    18 1   
    38    17    55 1   
    39    18    19 1   
    40    18    56 1   
    41    18    57 1   
    42    19    20 1   
    43    19    58 1   
    44    19    59 1   
    45    20    21 1   
    46    20    60 1   
    47    21    22 2   
    48    21    23 1   
    49    23    24 1   
    50    23    61 1   
    51    24    25 1   
    52    24    31 1   
    53    24    62 1   
    54    25    26 ar  
    55    25    30 ar  
    56    26    27 ar  
    57    26    63 1   
    58    27    28 ar  
    59    27    64 1   
    60    28    29 ar  
    61    28    65 1   
    62    29    30 ar  
    63    29    66 1   
    64    30    67 1   
    65    31    32 ar  
    66    31    36 ar  
    67    32    33 ar  
    68    32    68 1   
    69    33    34 ar  
    70    33    69 1   
    71    34    35 ar  
    72    34    70 1   
    73    35    36 ar  
    74    35    71 1   
    75    36    72 1   
@<TRIPOS>SUBSTRUCTURE
     1 X22         1 TEMP              0 ****  ****    0 ROOT
