@<TRIPOS>MOLECULE
X22
   72    75     1     0     0
SMALL
abcg2


@<TRIPOS>ATOM
      1 CAA        -11.5040    43.3390   -31.8470 c3         1 X22      -0.092100
      2 CB         -12.4160    44.5020   -31.4670 c3         1 X22      -0.060400
      3 CA         -12.2160    45.7730   -32.3140 c3         1 X22       0.089500
      4 N          -12.5360    45.5250   -33.7170 n8         1 X22      -0.980200
      5 C          -10.7960    46.3260   -32.1110 c          1 X22       0.563100
      6 O           -9.9000    46.1500   -32.9380 o          1 X22      -0.626100
      7 NAX        -10.6110    47.0130   -30.9690 ns         1 X22      -0.477900
      8 CBI         -9.3070    47.4470   -30.5200 c3         1 X22       0.050700
      9 CBA         -8.5170    46.2540   -29.9580 c          1 X22       0.550000
     10 OAE         -9.0700    45.1790   -29.7180 o          1 X22      -0.581000
     11 NBJ         -7.2020    46.4270   -29.7410 n          1 X22      -0.398800
     12 CBE         -9.4490    48.6030   -29.5050 c3         1 X22      -0.070700
     13 CAR         -9.8440    48.1300   -28.1110 c3         1 X22       0.156600
     14 OAF        -11.1500    47.5360   -28.1800 oh         1 X22      -0.689000
     15 CAS         -8.2040    49.4950   -29.4840 c3         1 X22      -0.067400
     16 CAT         -6.9110    48.8310   -29.0200 c3         1 X22      -0.099400
     17 CBF         -6.4070    47.6710   -29.8740 c5         1 X22       0.129700
     18 CAU         -5.0010    47.2330   -29.4270 c5         1 X22      -0.090400
     19 CAV         -4.9710    45.7140   -29.5730 c5         1 X22      -0.074400
     20 CBG         -6.4160    45.2870   -29.2810 c5         1 X22       0.026700
     21 CAZ         -6.6740    45.0360   -27.7920 c          1 X22       0.590100
     22 OAD         -6.7980    45.9650   -26.9990 o          1 X22      -0.599100
     23 NAW         -6.7310    43.7380   -27.4470 ns         1 X22      -0.497900
     24 CBH         -6.9660    43.2230   -26.0990 c3         1 X22       0.222300
     25 CBC         -6.0530    43.8940   -25.0740 ca         1 X22      -0.093800
     26 CAO         -4.6740    43.8320   -25.2770 ca         1 X22      -0.090500
     27 CAK         -3.7950    44.4110   -24.3720 ca         1 X22      -0.114250
     28 CAH         -4.2850    45.0580   -23.2400 ca         1 X22      -0.105500
     29 CAL         -5.6570    45.1170   -23.0270 ca         1 X22      -0.114250
     30 CAP         -6.5350    44.5380   -23.9390 ca         1 X22      -0.090500
     31 CBB         -8.4370    43.1970   -25.7150 ca         1 X22      -0.093800
     32 CAM         -8.8500    42.3010   -24.7280 ca         1 X22      -0.090500
     33 CAI        -10.1790    42.2450   -24.3270 ca         1 X22      -0.114250
     34 CAG        -11.1210    43.0840   -24.9160 ca         1 X22      -0.105500
     35 CAJ        -10.7200    43.9710   -25.9100 ca         1 X22      -0.114250
     36 CAN         -9.3860    44.0260   -26.3080 ca         1 X22      -0.090500
     37 HAA        -11.6500    43.0350   -32.8850 hc         1 X22       0.039367
     38 HAAA       -10.4530    43.5990   -31.7130 hc         1 X22       0.039367
     39 HAAB       -11.7160    42.4710   -31.2180 hc         1 X22       0.039367
     40 HB         -13.4620    44.2050   -31.5790 hc         1 X22       0.048200
     41 HBA        -12.2680    44.7560   -30.4150 hc         1 X22       0.048200
     42 HA         -12.9170    46.5260   -31.9440 h1         1 X22       0.062700
     43 HN         -12.5510    46.4070   -34.2180 hn         1 X22       0.404500
     44 HNA        -11.7840    44.9880   -34.1390 hn         1 X22       0.404500
     45 HNAX       -11.3380    47.0070   -30.2670 hn         1 X22       0.338500
     46 HBI         -8.7670    47.8180   -31.3930 h1         1 X22       0.086700
     47 HBE        -10.2720    49.2210   -29.8770 hc         1 X22       0.072700
     48 HAR         -9.1260    47.4040   -27.7210 h1         1 X22       0.042700
     49 HARA        -9.8580    48.9880   -27.4320 h1         1 X22       0.042700
     50 HOAF       -11.2880    47.0010   -27.3900 ho         1 X22       0.453000
     51 HAS         -8.0580    49.8930   -30.4920 hc         1 X22       0.048200
     52 HASA        -8.4070    50.3520   -28.8370 hc         1 X22       0.048200
     53 HAT         -6.1220    49.5890   -29.0260 hc         1 X22       0.063200
     54 HATA        -6.9980    48.4770   -27.9910 hc         1 X22       0.063200
     55 HBF         -6.3980    47.9650   -30.9290 h1         1 X22       0.055700
     56 HAU         -4.2280    47.7290   -30.0120 hc         1 X22       0.062200
     57 HAUA        -4.8640    47.5100   -28.3810 hc         1 X22       0.062200
     58 HAV         -4.7250    45.4250   -30.5960 hc         1 X22       0.059200
     59 HAVA        -4.2570    45.2340   -28.9040 hc         1 X22       0.059200
     60 HBG         -6.6990    44.4020   -29.8480 h1         1 X22       0.080700
     61 HNAW        -6.6940    43.0540   -28.1860 hn         1 X22       0.318500
     62 HBH         -6.6430    42.1800   -26.1490 h1         1 X22       0.056700
     63 HAO         -4.2880    43.3330   -26.1590 ha         1 X22       0.118250
     64 HAK         -2.7270    44.3540   -24.5470 ha         1 X22       0.111000
     65 HAH         -3.6020    45.5090   -22.5300 ha         1 X22       0.111500
     66 HAL         -6.0500    45.6190   -22.1510 ha         1 X22       0.111000
     67 HAP         -7.6010    44.5990   -23.7650 ha         1 X22       0.118250
     68 HAM         -8.1210    41.6440   -24.2670 ha         1 X22       0.118250
     69 HAI        -10.4800    41.5420   -23.5600 ha         1 X22       0.111000
     70 HAG        -12.1580    43.0410   -24.6080 ha         1 X22       0.111500
     71 HAJ        -11.4450    44.6210   -26.3830 ha         1 X22       0.111000
     72 HAN         -9.0990    44.7120   -27.0910 ha         1 X22       0.118250
@<TRIPOS>BOND
     1     1     2 1   
     2     1    37 1   
     3     1    38 1   
     4     1    39 1   
     5     2     3 1   
     6     2    40 1   
     7     2    41 1   
     8     3     4 1   
     9     3     5 1   
    10     3    42 1   
    11     4    43 1   
    12     4    44 1   
    13     5     6 2   
    14     5     7 1   
    15     7     8 1   
    16     7    45 1   
    17     8     9 1   
    18     8    12 1   
    19     8    46 1   
    20     9    10 2   
    21     9    11 1   
    22    11    17 1   
    23    11    20 1   
    24    12    13 1   
    25    12    15 1   
    26    12    47 1   
    27    13    14 1   
    28    13    48 1   
    29    13    49 1   
    30    14    50 1   
    31    15    16 1   
    32    15    51 1   
    33    15    52 1   
    34    16    17 1   
    35    16    53 1   
    36    16    54 1   
    37    17    18 1   
    38    17    55 1   
    39    18    19 1   
    40    18    56 1   
    41    18    57 1   
    42    19    20 1   
    43    19    58 1   
    44    19    59 1   
    45    20    21 1   
    46    20    60 1   
    47    21    22 2   
    48    21    23 1   
    49    23    24 1   
    50    23    61 1   
    51    24    25 1   
    52    24    31 1   
    53    24    62 1   
    54    25    26 ar  
    55    25    30 ar  
    56    26    27 ar  
    57    26    63 1   
    58    27    28 ar  
    59    27    64 1   
    60    28    29 ar  
    61    28    65 1   
    62    29    30 ar  
    63    29    66 1   
    64    30    67 1   
    65    31    32 ar  
    66    31    36 ar  
    67    32    33 ar  
    68    32    68 1   
    69    33    34 ar  
    70    33    69 1   
    71    34    35 ar  
    72    34    70 1   
    73    35    36 ar  
    74    35    71 1   
    75    36    72 1   
@<TRIPOS>SUBSTRUCTURE
     1 X22         1 TEMP              0 ****  ****    0 ROOT
