@<TRIPOS>MOLECULE
X23
   73    76     1     0     0
SMALL
abcg2


@<TRIPOS>ATOM
      1 CAA        -31.6020     6.4940    66.7030 c3         1 X23      -0.094100
      2 CB         -31.1670     7.9520    66.5890 c3         1 X23      -0.069400
      3 CA         -30.7400     8.5840    67.9190 c3         1 X23       0.092500
      4 N          -30.3760     9.9870    67.7070 n8         1 X23      -0.984200
      5 C          -29.5890     7.7750    68.5220 c          1 X23       0.554100
      6 O          -28.4590     7.8050    68.0280 o          1 X23      -0.623100
      7 NAX        -29.8960     7.0290    69.5950 ns         1 X23      -0.492900
      8 CBH        -28.9640     6.1160    70.2160 c3         1 X23       0.037700
      9 CBA        -29.7530     4.9870    70.8600 c          1 X23       0.559000
     10 OAF        -30.9450     5.1290    71.1560 o          1 X23      -0.603000
     11 NBJ        -29.0710     3.8690    71.1410 n          1 X23      -0.388800
     12 CBE        -28.0430     6.7910    71.2690 c3         1 X23      -0.063700
     13 CAR        -28.8510     7.5460    72.3250 c3         1 X23       0.148800
     14 NAB        -27.9650     8.3200    73.2070 n8         1 X23      -0.997200
     15 CAS        -27.0790     5.7760    71.9100 c3         1 X23      -0.070400
     16 CAT        -26.6340     4.6660    70.9590 c3         1 X23      -0.086400
     17 CBF        -27.6710     3.5380    70.7640 c5         1 X23       0.123700
     18 CAU        -27.3960     2.3140    71.6410 c5         1 X23      -0.093400
     19 CAV        -28.7470     1.6130    71.7540 c5         1 X23      -0.077400
     20 CBI        -29.7520     2.7750    71.8350 c5         1 X23       0.027700
     21 CAZ        -30.0470     3.1610    73.2880 c          1 X23       0.590100
     22 OAE        -29.2030     3.7140    73.9870 o          1 X23      -0.583100
     23 NAW        -31.2680     2.8080    73.7260 ns         1 X23      -0.499900
     24 CBG        -31.7660     2.9960    75.0890 c3         1 X23       0.225300
     25 CBC        -30.7890     2.4240    76.1160 ca         1 X23      -0.095300
     26 CAO        -30.4900     1.0620    76.0490 ca         1 X23      -0.089500
     27 CAK        -29.6090     0.4820    76.9520 ca         1 X23      -0.114250
     28 CAH        -29.0170     1.2570    77.9460 ca         1 X23      -0.106000
     29 CAL        -29.3140     2.6130    78.0220 ca         1 X23      -0.114250
     30 CAP        -30.1960     3.1910    77.1130 ca         1 X23      -0.089500
     31 CBB        -32.2320     4.4150    75.3760 ca         1 X23      -0.095300
     32 CAM        -31.8840     5.5010    74.5790 ca         1 X23      -0.089500
     33 CAI        -32.3330     6.7820    74.8920 ca         1 X23      -0.114250
     34 CAG        -33.1400     6.9920    76.0040 ca         1 X23      -0.106000
     35 CAJ        -33.5060     5.9070    76.7980 ca         1 X23      -0.114250
     36 CAN        -33.0560     4.6310    76.4830 ca         1 X23      -0.089500
     37 HAA        -30.7800     5.8510    67.0250 hc         1 X23       0.036367
     38 HAAA       -32.4160     6.3810    67.4230 hc         1 X23       0.036367
     39 HAAB       -31.9540     6.1230    65.7390 hc         1 X23       0.036367
     40 HB         -30.3320     8.0400    65.8870 hc         1 X23       0.057700
     41 HBA        -31.9830     8.5590    66.1920 hc         1 X23       0.057700
     42 HA         -31.5880     8.5610    68.6080 h1         1 X23       0.063700
     43 HN         -30.1560    10.4230    68.5980 hn         1 X23       0.405500
     44 HNA        -29.5230    10.0230    67.1570 hn         1 X23       0.405500
     45 HNAX       -30.8420     7.0110    69.9480 hn         1 X23       0.339500
     46 HBH        -28.3340     5.7130    69.4250 h1         1 X23       0.086700
     47 HBE        -27.4550     7.5220    70.7040 hc         1 X23       0.063700
     48 HAR        -29.5980     8.1740    71.8280 h1         1 X23       0.038200
     49 HARA       -29.3940     6.8270    72.9440 h1         1 X23       0.038200
     50 HNAB       -27.5220     9.0600    72.6700 hn         1 X23       0.391500
     51 HNAA       -28.5210     8.7860    73.9170 hn         1 X23       0.391500
     52 HAS        -26.2030     6.3130    72.2720 hc         1 X23       0.071200
     53 HASA       -27.5530     5.3280    72.7860 hc         1 X23       0.071200
     54 HAT        -26.3640     5.0950    69.9920 hc         1 X23       0.051700
     55 HATA       -25.7260     4.1990    71.3470 hc         1 X23       0.051700
     56 HBF        -27.6780     3.2320    69.7140 h1         1 X23       0.048700
     57 HAU        -26.6220     1.6830    71.2050 hc         1 X23       0.068200
     58 HAUA       -27.0590     2.6450    72.6240 hc         1 X23       0.068200
     59 HAV        -28.9550     1.0290    70.8560 hc         1 X23       0.059200
     60 HAVA       -28.8190     0.9490    72.6140 hc         1 X23       0.059200
     61 HBI        -30.6840     2.5380    71.3230 h1         1 X23       0.070700
     62 HAO        -30.9480     0.4550    75.2770 ha         1 X23       0.118500
     63 HAK        -29.3890    -0.5770    76.8850 ha         1 X23       0.111250
     64 HAH        -28.3310     0.8070    78.6530 ha         1 X23       0.111000
     65 HAL        -28.8580     3.2270    78.7890 ha         1 X23       0.111250
     66 HAP        -30.4100     4.2490    77.1790 ha         1 X23       0.118500
     67 HAM        -31.2700     5.3590    73.7020 ha         1 X23       0.118500
     68 HAI        -32.0490     7.6150    74.2610 ha         1 X23       0.111250
     69 HAG        -33.4890     7.9880    76.2460 ha         1 X23       0.111000
     70 HAJ        -34.1440     6.0550    77.6600 ha         1 X23       0.111250
     71 HAN        -33.3460     3.7920    77.1050 ha         1 X23       0.118500
     72 H36        -31.9180     2.4300    73.0550 hn         1 X23       0.317500
     73 H37        -32.6560     2.3640    75.1380 h1         1 X23       0.055700
@<TRIPOS>BOND
     1     1     2 1   
     2     1    37 1   
     3     1    38 1   
     4     1    39 1   
     5     2     3 1   
     6     2    40 1   
     7     2    41 1   
     8     3     4 1   
     9     3     5 1   
    10     3    42 1   
    11     4    43 1   
    12     4    44 1   
    13     5     6 2   
    14     5     7 1   
    15     7     8 1   
    16     7    45 1   
    17     8     9 1   
    18     8    12 1   
    19     8    46 1   
    20     9    10 2   
    21     9    11 1   
    22    11    17 1   
    23    11    20 1   
    24    12    13 1   
    25    12    15 1   
    26    12    47 1   
    27    13    14 1   
    28    13    48 1   
    29    13    49 1   
    30    14    50 1   
    31    14    51 1   
    32    15    16 1   
    33    15    52 1   
    34    15    53 1   
    35    16    17 1   
    36    16    54 1   
    37    16    55 1   
    38    17    18 1   
    39    17    56 1   
    40    18    19 1   
    41    18    57 1   
    42    18    58 1   
    43    19    20 1   
    44    19    59 1   
    45    19    60 1   
    46    20    21 1   
    47    20    61 1   
    48    21    22 2   
    49    21    23 1   
    50    23    24 1   
    51    23    72 1   
    52    24    25 1   
    53    24    31 1   
    54    24    73 1   
    55    25    26 ar  
    56    25    30 ar  
    57    26    27 ar  
    58    26    62 1   
    59    27    28 ar  
    60    27    63 1   
    61    28    29 ar  
    62    28    64 1   
    63    29    30 ar  
    64    29    65 1   
    65    30    66 1   
    66    31    32 ar  
    67    31    36 ar  
    68    32    33 ar  
    69    32    67 1   
    70    33    34 ar  
    71    33    68 1   
    72    34    35 ar  
    73    34    69 1   
    74    35    36 ar  
    75    35    70 1   
    76    36    71 1   
@<TRIPOS>SUBSTRUCTURE
     1 X23         1 TEMP              0 ****  ****    0 ROOT
