@<TRIPOS>MOLECULE
X23
   73    76     1     0     0
SMALL
No Charge or Current Charge


@<TRIPOS>ATOM
      1 CAA        -31.4410     6.9990    66.1780 c3         1 X23      -0.094100
      2 CB         -30.7990     8.4040    66.1490 c3         1 X23      -0.069400
      3 CA         -30.3040     8.9010    67.5310 c3         1 X23       0.092500
      4 N          -29.8480    10.3260    67.4140 n8         1 X23      -0.984200
      5 C          -29.2430     7.9200    68.1510 c          1 X23       0.554100
      6 O          -28.0910     7.8440    67.7420 o          1 X23      -0.623100
      7 NAX        -29.6880     7.1680    69.2190 ns         1 X23      -0.492900
      8 CBH        -28.8770     6.1760    69.9640 c3         1 X23       0.037700
      9 CBA        -29.8060     5.1700    70.7040 c          1 X23       0.559000
     10 OAF        -31.0060     5.3940    70.8400 o          1 X23      -0.603000
     11 NBJ        -29.2320     4.0080    71.2620 n          1 X23      -0.388800
     12 CBE        -27.8220     6.8400    70.9120 c3         1 X23      -0.063700
     13 CAR        -28.4410     7.9640    71.7920 c3         1 X23       0.148800
     14 NAB        -27.4270     8.6940    72.5840 n8         1 X23      -0.997200
     15 CAS        -27.0370     5.8110    71.7810 c3         1 X23      -0.070400
     16 CAT        -26.6980     4.4910    71.0520 c3         1 X23      -0.086400
     17 CBF        -27.8820     3.4890    70.9050 c5         1 X23       0.123700
     18 CAU        -27.7690     2.3060    71.9080 c5         1 X23      -0.093400
     19 CAV        -29.2020     1.7300    71.8930 c5         1 X23      -0.077400
     20 CBI        -30.0680     3.0200    72.0020 c5         1 X23       0.027700
     21 CAZ        -30.2910     3.3850    73.5040 c          1 X23       0.590100
     22 OAE        -29.7000     4.2380    74.1530 o          1 X23      -0.583100
     23 NAW        -31.3230     2.6130    74.0010 ns         1 X23      -0.499900
     24 CBG        -31.8050     2.6120    75.3850 c3         1 X23       0.225300
     25 CBC        -30.6900     2.1990    76.3550 ca         1 X23      -0.095300
     26 CAO        -30.4170     0.8290    76.5530 ca         1 X23      -0.089500
     27 CAK        -29.4000     0.4240    77.4340 ca         1 X23      -0.114250
     28 CAH        -28.6450     1.3830    78.1270 ca         1 X23      -0.106000
     29 CAL        -28.9060     2.7500    77.9350 ca         1 X23      -0.114250
     30 CAP        -29.9220     3.1560    77.0540 ca         1 X23      -0.089500
     31 CBB        -32.5770     3.8760    75.8100 ca         1 X23      -0.095300
     32 CAM        -32.8610     4.9350    74.9140 ca         1 X23      -0.089500
     33 CAI        -33.5850     6.0610    75.3440 ca         1 X23      -0.114250
     34 CAG        -34.0430     6.1430    76.6680 ca         1 X23      -0.106000
     35 CAJ        -33.7830     5.0940    77.5620 ca         1 X23      -0.114250
     36 CAN        -33.0600     3.9670    77.1340 ca         1 X23      -0.089500
     37 HAA        -30.7120     6.2360    66.4760 hc         1 X23       0.036367
     38 HAAA       -32.2810     6.9710    66.8830 hc         1 X23       0.036367
     39 HAAB       -31.8210     6.7340    65.1840 hc         1 X23       0.036367
     40 HB         -29.9610     8.3950    65.4410 hc         1 X23       0.057700
     41 HBA        -31.5380     9.1140    65.7550 hc         1 X23       0.057700
     42 HA         -31.1710     8.9000    68.2070 h1         1 X23       0.063700
     43 HN         -29.5740    10.6740    68.3420 hn         1 X23       0.405500
     44 HNA        -28.9620    10.3440    66.8910 hn         1 X23       0.405500
     45 HNAX       -30.6620     7.2740    69.4850 hn         1 X23       0.339500
     46 HBH        -28.3390     5.5830    69.2130 h1         1 X23       0.086700
     47 HBE        -27.0870     7.3210    70.2540 hc         1 X23       0.063700
     48 HAR        -28.9600     8.6970    71.1590 h1         1 X23       0.038200
     49 HARA       -29.1780     7.5270    72.4800 h1         1 X23       0.038200
     50 HNAB       -26.7910     9.1840    71.9450 hn         1 X23       0.391500
     51 HNAA       -27.8870     9.4540    73.0990 hn         1 X23       0.391500
     52 HAS        -26.0980     6.2760    72.1080 hc         1 X23       0.071200
     53 HASA       -27.5920     5.5850    72.7000 hc         1 X23       0.071200
     54 HAT        -26.2960     4.7320    70.0600 hc         1 X23       0.051700
     55 HATA       -25.8690     4.0050    71.5810 hc         1 X23       0.051700
     56 HBF        -27.8900     3.1070    69.8750 h1         1 X23       0.048700
     57 HAU        -27.0170     1.5710    71.6000 hc         1 X23       0.068200
     58 HAUA       -27.4920     2.6510    72.9120 hc         1 X23       0.068200
     59 HAV        -29.4010     1.2050    70.9500 hc         1 X23       0.059200
     60 HAVA       -29.3810     1.0140    72.7030 hc         1 X23       0.059200
     61 HBI        -31.0480     2.8790    71.5270 h1         1 X23       0.070700
     62 HAO        -30.9940     0.0760    76.0200 ha         1 X23       0.118500
     63 HAK        -29.1980    -0.6350    77.5800 ha         1 X23       0.111250
     64 HAH        -27.8580     1.0690    78.8090 ha         1 X23       0.111000
     65 HAL        -28.3200     3.4950    78.4680 ha         1 X23       0.111250
     66 HAP        -30.1080     4.2180    76.9100 ha         1 X23       0.118500
     67 HAM        -32.5320     4.8980    73.8790 ha         1 X23       0.118500
     68 HAI        -33.7920     6.8700    74.6470 ha         1 X23       0.111250
     69 HAG        -34.6030     7.0160    76.9980 ha         1 X23       0.111000
     70 HAJ        -34.1430     5.1510    78.5870 ha         1 X23       0.111250
     71 HAN        -32.8730     3.1590    77.8380 ha         1 X23       0.118500
     72 H36        -31.7470     1.9550    73.3590 hn         1 X23       0.317500
     73 H37        -32.5500     1.8060    75.4250 h1         1 X23       0.055700
@<TRIPOS>BOND
     1     1     2 1   
     2     1    37 1   
     3     1    38 1   
     4     1    39 1   
     5     2     3 1   
     6     2    40 1   
     7     2    41 1   
     8     3     4 1   
     9     3     5 1   
    10     3    42 1   
    11     4    43 1   
    12     4    44 1   
    13     5     6 2   
    14     5     7 1   
    15     7     8 1   
    16     7    45 1   
    17     8     9 1   
    18     8    12 1   
    19     8    46 1   
    20     9    10 2   
    21     9    11 1   
    22    11    17 1   
    23    11    20 1   
    24    12    13 1   
    25    12    15 1   
    26    12    47 1   
    27    13    14 1   
    28    13    48 1   
    29    13    49 1   
    30    14    50 1   
    31    14    51 1   
    32    15    16 1   
    33    15    52 1   
    34    15    53 1   
    35    16    17 1   
    36    16    54 1   
    37    16    55 1   
    38    17    18 1   
    39    17    56 1   
    40    18    19 1   
    41    18    57 1   
    42    18    58 1   
    43    19    20 1   
    44    19    59 1   
    45    19    60 1   
    46    20    21 1   
    47    20    61 1   
    48    21    22 2   
    49    21    23 1   
    50    23    24 1   
    51    23    72 1   
    52    24    25 1   
    53    24    31 1   
    54    24    73 1   
    55    25    26 ar  
    56    25    30 ar  
    57    26    27 ar  
    58    26    62 1   
    59    27    28 ar  
    60    27    63 1   
    61    28    29 ar  
    62    28    64 1   
    63    29    30 ar  
    64    29    65 1   
    65    30    66 1   
    66    31    32 ar  
    67    31    36 ar  
    68    32    33 ar  
    69    32    67 1   
    70    33    34 ar  
    71    33    68 1   
    72    34    35 ar  
    73    34    69 1   
    74    35    36 ar  
    75    35    70 1   
    76    36    71 1   
@<TRIPOS>SUBSTRUCTURE
     1 X23         1 TEMP              0 ****  ****    0 ROOT
