@<TRIPOS>MOLECULE
X24
   75    78     1     0     0
SMALL
No Charge or Current Charge


@<TRIPOS>ATOM
      1 C1           8.2510     1.8890    -1.3420 c3         1 X24      -0.108433
      2 C2           7.4550     0.7730    -2.0670 c3         1 X24       0.225000
      3 C3           6.1210     1.2760    -2.6770 c3         1 X24      -0.108433
      4 C4           8.3300     0.1340    -3.1680 c3         1 X24      -0.108433
      5 O5           7.1890    -0.3120    -1.1470 os         1 X24      -0.482100
      6 C6           6.4280    -0.1520    -0.0220 c          1 X24       0.648100
      7 O7           5.9000     0.8740     0.3750 o          1 X24      -0.551000
      8 N8           6.3480    -1.3620     0.6060 ns         1 X24      -0.503900
      9 C9           5.5760    -1.6300     1.8220 c3         1 X24       0.117000
     10 C10          4.1750    -2.2500     1.5420 c6         1 X24      -0.077700
     11 C11          3.4650    -2.6250     2.8720 c6         1 X24      -0.069900
     12 C12          2.0770    -3.2620     2.6190 c6         1 X24      -0.070900
     13 C13          1.1660    -2.3280     1.7770 c6         1 X24      -0.082700
     14 C14         -0.2280    -2.9750     1.5460 c3         1 X24       0.101000
     15 N15         -1.1620    -2.0790     0.8620 ns         1 X24      -0.502900
     16 C16         -2.3790    -2.4670     0.3440 c          1 X24       0.610700
     17 O17         -2.7770    -3.6170     0.4720 o          1 X24      -0.588100
     18 C18         -3.2000    -1.3570    -0.2890 ca         1 X24      -0.100600
     19 C19         -3.1090    -0.0480     0.2400 ca         1 X24      -0.136000
     20 C20         -3.8860     1.0080    -0.2870 cp         1 X24       0.425500
     21 N21         -4.7500     0.7900    -1.2990 nb         1 X24      -0.659000
     22 C22         -4.8580    -0.4400    -1.8450 ca         1 X24       0.274000
     23 C23         -5.7540    -0.6170    -2.9160 ca         1 X24      -0.084000
     24 C24         -5.8990    -1.8630    -3.5440 ca         1 X24      -0.100000
     25 C25         -5.1330    -2.9510    -3.1080 ca         1 X24      -0.106000
     26 C26         -4.2360    -2.7980    -2.0400 ca         1 X24      -0.083000
     27 C27         -4.0960    -1.5510    -1.3810 ca         1 X24      -0.052000
     28 C28         -3.8220     2.4100     0.2610 cp         1 X24      -0.155500
     29 C29         -4.9170     3.3090     0.1260 ca         1 X24      -0.082500
     30 C30         -4.8580     4.6160     0.6380 ca         1 X24      -0.109000
     31 C31         -3.7040     5.0730     1.2980 ca         1 X24      -0.072300
     32 C32         -3.6390     6.4940     1.8450 c3         1 X24       0.195100
     33 N33         -4.2270     6.5870     3.1950 n8         1 X24      -0.998200
     34 C34         -2.6070     4.2040     1.4370 ca         1 X24      -0.109000
     35 C35         -2.6640     2.8950     0.9270 ca         1 X24      -0.082500
     36 C36          1.8720    -1.9540     0.4420 c6         1 X24      -0.070900
     37 C37          3.2630    -1.3200     0.6900 c6         1 X24      -0.069900
     38 H11C         7.6230     2.4560    -0.6470 hc         1 X24       0.049256
     39 H12C         9.0930     1.4660    -0.7820 hc         1 X24       0.049256
     40 H13C         8.6540     2.6040    -2.0690 hc         1 X24       0.049256
     41 H31C         6.3170     1.9330    -3.5330 hc         1 X24       0.049256
     42 H32C         5.5120     0.4350    -3.0290 hc         1 X24       0.049256
     43 H33C         5.5310     1.8520    -1.9560 hc         1 X24       0.049256
     44 H41C         9.2580    -0.2670    -2.7440 hc         1 X24       0.049256
     45 H42C         7.7960    -0.6880    -3.6610 hc         1 X24       0.049256
     46 H43C         8.5960     0.8730    -3.9330 hc         1 X24       0.049256
     47 H8           6.8390    -2.1240     0.1570 hn         1 X24       0.319500
     48 H91C         6.1540    -2.3260     2.4440 h1         1 X24       0.052200
     49 H92C         5.4540    -0.6980     2.3910 h1         1 X24       0.052200
     50 H10          4.3560    -3.1750     0.9750 hc         1 X24       0.045700
     51 H111         4.0890    -3.3260     3.4440 hc         1 X24       0.045950
     52 H112         3.3490    -1.7300     3.4990 hc         1 X24       0.045950
     53 H371         3.1420    -0.3510     1.1950 hc         1 X24       0.045950
     54 H372         3.7340    -1.1090    -0.2790 hc         1 X24       0.045950
     55 H121         2.2030    -4.2250     2.1040 hc         1 X24       0.040700
     56 H122         1.5980    -3.4860     3.5820 hc         1 X24       0.040700
     57 H13          0.9900    -1.4080     2.3540 hc         1 X24       0.057700
     58 H141        -0.1060    -3.8900     0.9510 h1         1 X24       0.057700
     59 H142        -0.6620    -3.2540     2.5160 h1         1 X24       0.057700
     60 H361         1.9840    -2.8500    -0.1840 hc         1 X24       0.040700
     61 H362         1.2550    -1.2500    -0.1330 hc         1 X24       0.040700
     62 H15         -0.8890    -1.1160     0.7160 hn         1 X24       0.317500
     63 H19         -2.4750     0.1510     1.0970 ha         1 X24       0.128000
     64 H23         -6.3410     0.2280    -3.2660 ha         1 X24       0.132000
     65 H24         -6.5940    -1.9800    -4.3730 ha         1 X24       0.117000
     66 H25         -5.2310    -3.9160    -3.6020 ha         1 X24       0.117000
     67 H26         -3.6490    -3.6640    -1.7540 ha         1 X24       0.130000
     68 H29         -5.8280     2.9870    -0.3740 ha         1 X24       0.120500
     69 H35         -1.7870     2.2630     1.0380 ha         1 X24       0.120500
     70 H30         -5.7150     5.2770     0.5230 ha         1 X24       0.122500
     71 H321        -2.5930     6.8270     1.8900 h1         1 X24       0.036200
     72 H322        -4.1830     7.1750     1.1740 h1         1 X24       0.036200
     73 H34         -1.7030     4.5440     1.9390 ha         1 X24       0.122500
     74 H331        -3.6810     5.9930     3.8300 hn         1 X24       0.397500
     75 H332        -4.0770     7.5350     3.5590 hn         1 X24       0.397500
@<TRIPOS>BOND
     1     1     2 1   
     2     1    38 1   
     3     1    39 1   
     4     1    40 1   
     5     2     3 1   
     6     2     4 1   
     7     2     5 1   
     8     3    41 1   
     9     3    42 1   
    10     3    43 1   
    11     4    44 1   
    12     4    45 1   
    13     4    46 1   
    14     5     6 1   
    15     6     7 2   
    16     6     8 1   
    17     8     9 1   
    18     8    47 1   
    19     9    10 1   
    20     9    48 1   
    21     9    49 1   
    22    10    11 1   
    23    10    37 1   
    24    10    50 1   
    25    11    12 1   
    26    11    51 1   
    27    11    52 1   
    28    12    13 1   
    29    12    55 1   
    30    12    56 1   
    31    13    14 1   
    32    13    36 1   
    33    13    57 1   
    34    14    15 1   
    35    14    58 1   
    36    14    59 1   
    37    15    16 1   
    38    15    62 1   
    39    16    17 2   
    40    16    18 1   
    41    18    19 ar  
    42    18    27 ar  
    43    19    20 ar  
    44    19    63 1   
    45    20    21 ar  
    46    20    28 1   
    47    21    22 ar  
    48    22    23 ar  
    49    22    27 ar  
    50    23    24 ar  
    51    23    64 1   
    52    24    25 ar  
    53    24    65 1   
    54    25    26 ar  
    55    25    66 1   
    56    26    27 ar  
    57    26    67 1   
    58    28    29 ar  
    59    28    35 ar  
    60    29    30 ar  
    61    29    68 1   
    62    30    31 ar  
    63    30    70 1   
    64    31    32 1   
    65    31    34 ar  
    66    32    33 1   
    67    32    71 1   
    68    32    72 1   
    69    33    74 1   
    70    33    75 1   
    71    34    35 ar  
    72    34    73 1   
    73    35    69 1   
    74    36    37 1   
    75    36    60 1   
    76    36    61 1   
    77    37    53 1   
    78    37    54 1   
@<TRIPOS>SUBSTRUCTURE
     1 X24         1 TEMP              0 ****  ****    0 ROOT
