@<TRIPOS>MOLECULE
X25
   52    56     1     0     0
SMALL
No Charge or Current Charge


@<TRIPOS>ATOM
      1 C           -1.0090     1.6510     0.7110 c3         1 X25      -0.035900
      2 C1          -0.7440     0.1640     0.6600 cc         1 X25      -0.008400
      3 C2           0.4730    -0.5170     0.7440 cd         1 X25      -0.092700
      4 O            0.3070    -1.8730     0.6240 os         1 X25      -0.133200
      5 C14          1.7710     0.0840     0.9430 cd         1 X25       0.576800
      6 N1           2.8990    -0.5910     1.0150 nc         1 X25      -0.693000
      7 C15          3.8020     0.4090     1.2120 cc         1 X25       0.561300
      8 C16          5.2660     0.0900     1.3460 c3         1 X25      -0.057400
      9 C17          6.0240     0.1900     0.0260 ca         1 X25      -0.086300
     10 C18          6.6720     1.3870    -0.3350 ca         1 X25      -0.092500
     11 C19          7.3640     1.4780    -1.5550 ca         1 X25      -0.112000
     12 C20          7.4110     0.3740    -2.4230 ca         1 X25      -0.105000
     13 C21          6.7640    -0.8220    -2.0690 ca         1 X25      -0.112000
     14 C22          6.0710    -0.9140    -0.8490 ca         1 X25      -0.092500
     15 N2           3.3260     1.6400     1.2730 nd         1 X25      -0.381300
     16 O2           1.9410     1.4310     1.0920 os         1 X25      -0.086700
     17 C3          -1.0170    -2.1170     0.4840 ca         1 X25       0.120100
     18 C13         -1.7140    -0.9270     0.5050 ca         1 X25      -0.177800
     19 C4          -1.6340    -3.3630     0.3490 ca         1 X25      -0.153000
     20 C5          -3.0360    -3.3870     0.2360 ca         1 X25      -0.036000
     21 C6          -3.7730    -2.1800     0.2660 ca         1 X25      -0.243000
     22 C7          -3.1190    -0.9260     0.3970 ca         1 X25       0.220100
     23 O1          -3.8030     0.2730     0.4590 os         1 X25      -0.340100
     24 C8          -5.1890     0.3950     0.0750 c6         1 X25       0.175300
     25 C9          -5.7110     1.7850     0.5040 c6         1 X25      -0.092900
     26 C10         -7.1710     1.9930     0.0420 c6         1 X25       0.160300
     27 N           -7.2960     1.8010    -1.4220 n7         1 X25      -0.863400
     28 C11         -6.8330     0.4680    -1.8720 c6         1 X25       0.160300
     29 C12         -5.3650     0.2210    -1.4570 c6         1 X25      -0.092900
     30 HC1         -2.0010     1.9120     0.3310 hc         1 X25       0.058700
     31 HC2         -0.9330     2.0260     1.7380 hc         1 X25       0.058700
     32 HC3         -0.2920     2.2010     0.0910 hc         1 X25       0.058700
     33 H161         5.7110     0.7650     2.0870 hc         1 X25       0.073700
     34 H162         5.3790    -0.9160     1.7660 hc         1 X25       0.073700
     35 H18          6.6390     2.2490     0.3280 ha         1 X25       0.116000
     36 H22          5.5700    -1.8430    -0.5840 ha         1 X25       0.116000
     37 H19          7.8630     2.4050    -1.8290 ha         1 X25       0.112500
     38 H20          7.9460     0.4450    -3.3670 ha         1 X25       0.112000
     39 H21          6.7970    -1.6780    -2.7400 ha         1 X25       0.112500
     40 H4          -1.0490    -4.2790     0.3370 ha         1 X25       0.140000
     41 H5          -3.5540    -4.3390     0.1350 ha         1 X25       0.116000
     42 H6          -4.8540    -2.2450     0.1940 ha         1 X25       0.121000
     43 H8          -5.7810    -0.3610     0.6100 h1         1 X25       0.042700
     44 H91C        -5.6510     1.8870     1.5960 hc         1 X25       0.062950
     45 H92C        -5.0750     2.5720     0.0770 hc         1 X25       0.062950
     46 H121        -4.7100     0.9240    -1.9880 hc         1 X25       0.062950
     47 H122        -5.0640    -0.7860    -1.7720 hc         1 X25       0.062950
     48 H101        -7.8270     1.2780     0.5630 h1         1 X25       0.032950
     49 H102        -7.5030     3.0070     0.3100 h1         1 X25       0.032950
     50 H           -8.2830     1.9180    -1.6900 hn         1 X25       0.416000
     51 H111        -7.4740    -0.3110    -1.4330 h1         1 X25       0.032950
     52 H112        -6.9240     0.3970    -2.9660 h1         1 X25       0.032950
@<TRIPOS>BOND
     1     1     2 1   
     2     1    30 1   
     3     1    31 1   
     4     1    32 1   
     5     2     3 2   
     6     2    18 1   
     7     3     4 1   
     8     3     5 1   
     9     4    17 1   
    10     5     6 2   
    11     5    16 1   
    12     6     7 1   
    13     7     8 1   
    14     7    15 2   
    15     8     9 1   
    16     8    33 1   
    17     8    34 1   
    18     9    10 ar  
    19     9    14 ar  
    20    10    11 ar  
    21    10    35 1   
    22    11    12 ar  
    23    11    37 1   
    24    12    13 ar  
    25    12    38 1   
    26    13    14 ar  
    27    13    39 1   
    28    14    36 1   
    29    15    16 1   
    30    17    18 ar  
    31    17    19 ar  
    32    18    22 ar  
    33    19    20 ar  
    34    19    40 1   
    35    20    21 ar  
    36    20    41 1   
    37    21    22 ar  
    38    21    42 1   
    39    22    23 1   
    40    23    24 1   
    41    24    25 1   
    42    24    29 1   
    43    24    43 1   
    44    25    26 1   
    45    25    44 1   
    46    25    45 1   
    47    26    27 1   
    48    26    48 1   
    49    26    49 1   
    50    27    28 1   
    51    27    50 1   
    52    28    29 1   
    53    28    51 1   
    54    28    52 1   
    55    29    46 1   
    56    29    47 1   
@<TRIPOS>SUBSTRUCTURE
     1 X25         1 TEMP              0 ****  ****    0 ROOT
