@<TRIPOS>MOLECULE
X25
   52    56     1     0     0
SMALL
bcc


@<TRIPOS>ATOM
      1 C           -1.1330     1.8330     0.9760 c3         1 X25      -0.035900
      2 C1          -0.7070     0.4320     0.7100 cc         1 X25      -0.008400
      3 C2           0.5390    -0.1170     0.7660 cd         1 X25      -0.092700
      4 O            0.5340    -1.4430     0.4460 os         1 X25      -0.133200
      5 C14          1.8400     0.4060     1.0710 cd         1 X25       0.621200
      6 N1           2.9670    -0.2330     1.0330 nc         1 X25      -0.693000
      7 C15          3.8600     0.7280     1.4030 cc         1 X25       0.561300
      8 C16          5.3260     0.4860     1.4830 c3         1 X25      -0.057400
      9 C17          5.8850     0.1530     0.1210 ca         1 X25      -0.086300
     10 C18          6.1230     1.1700    -0.7990 ca         1 X25      -0.110500
     11 C19          6.6160     0.8770    -2.0630 ca         1 X25      -0.130000
     12 C20          6.8730    -0.4400    -2.4220 ca         1 X25      -0.123000
     13 C21          6.6350    -1.4590    -1.5100 ca         1 X25      -0.130000
     14 C22          6.1420    -1.1630    -0.2450 ca         1 X25      -0.110500
     15 N2           3.3210     1.8810     1.6530 nd         1 X25      -0.381300
     16 O2           1.9800     1.6730     1.4350 os         1 X25      -0.131100
     17 C3          -0.7400    -1.7730     0.1770 ca         1 X25       0.120100
     18 C13         -1.5610    -0.6560     0.3210 ca         1 X25      -0.177800
     19 C4          -1.1930    -3.0300    -0.1910 ca         1 X25      -0.171000
     20 C5          -2.5530    -3.1220    -0.4190 ca         1 X25      -0.054000
     21 C6          -3.4210    -2.0290    -0.2880 ca         1 X25      -0.261000
     22 C7          -2.9430    -0.7800     0.0850 ca         1 X25       0.220100
     23 O1          -3.6750     0.3240     0.2580 os         1 X25      -0.316900
     24 C8          -5.0720     0.3260    -0.0320 c6         1 X25       0.152100
     25 C9          -5.6760     1.5300     0.6690 c6         1 X25      -0.092900
     26 C10         -7.1620     1.6160     0.3450 c6         1 X25       0.160300
     27 N           -7.3510     1.7040    -1.0910 n7         1 X25      -0.808200
     28 C11         -6.8410     0.5270    -1.7700 c6         1 X25       0.160300
     29 C12         -5.3410     0.3980    -1.5290 c6         1 X25      -0.092900
     30 HC1         -1.6190     2.2550     0.0960 hc         1 X25       0.058700
     31 HC2         -1.8620     1.8640     1.7860 hc         1 X25       0.058700
     32 HC3         -0.3040     2.4790     1.2450 hc         1 X25       0.058700
     33 H161         5.8100     1.3740     1.8910 hc         1 X25       0.073700
     34 H162         5.5060    -0.3350     2.1800 hc         1 X25       0.073700
     35 H18          5.9250     2.2000    -0.5240 ha         1 X25       0.134000
     36 H22          5.9620    -1.9630     0.4630 ha         1 X25       0.134000
     37 H19          6.8010     1.6780    -2.7670 ha         1 X25       0.130500
     38 H20          7.2600    -0.6710    -3.4060 ha         1 X25       0.130000
     39 H21          6.8330    -2.4880    -1.7820 ha         1 X25       0.130500
     40 H4          -0.5300    -3.8770    -0.2960 ha         1 X25       0.158000
     41 H5          -2.9740    -4.0740    -0.7140 ha         1 X25       0.134000
     42 H6          -4.4710    -2.1890    -0.4880 ha         1 X25       0.139000
     43 H8          -5.5350    -0.5800     0.3820 h1         1 X25       0.042700
     44 H91C        -5.5350     1.4510     1.7490 hc         1 X25       0.062950
     45 H92C        -5.1760     2.4420     0.3310 hc         1 X25       0.062950
     46 H121        -4.8260     1.2690    -1.9440 hc         1 X25       0.062950
     47 H122        -4.9640    -0.4870    -2.0470 hc         1 X25       0.062950
     48 H101        -7.6730     0.7430     0.7840 h1         1 X25       0.032950
     49 H102        -7.5890     2.5030     0.8170 h1         1 X25       0.032950
     50 H           -8.3350     1.8140    -1.2970 hn         1 X25       0.360800
     51 H111        -7.3340    -0.4020    -1.4350 h1         1 X25       0.032950
     52 H112        -7.0340     0.6190    -2.8400 h1         1 X25       0.032950
@<TRIPOS>BOND
     1     1     2 1   
     2     1    30 1   
     3     1    31 1   
     4     1    32 1   
     5     2     3 2   
     6     2    18 1   
     7     3     4 1   
     8     3     5 1   
     9     4    17 1   
    10     5     6 2   
    11     5    16 1   
    12     6     7 1   
    13     7     8 1   
    14     7    15 2   
    15     8     9 1   
    16     8    33 1   
    17     8    34 1   
    18     9    10 ar  
    19     9    14 ar  
    20    10    11 ar  
    21    10    35 1   
    22    11    12 ar  
    23    11    37 1   
    24    12    13 ar  
    25    12    38 1   
    26    13    14 ar  
    27    13    39 1   
    28    14    36 1   
    29    15    16 1   
    30    17    18 ar  
    31    17    19 ar  
    32    18    22 ar  
    33    19    20 ar  
    34    19    40 1   
    35    20    21 ar  
    36    20    41 1   
    37    21    22 ar  
    38    21    42 1   
    39    22    23 1   
    40    23    24 1   
    41    24    25 1   
    42    24    29 1   
    43    24    43 1   
    44    25    26 1   
    45    25    44 1   
    46    25    45 1   
    47    26    27 1   
    48    26    48 1   
    49    26    49 1   
    50    27    28 1   
    51    27    50 1   
    52    28    29 1   
    53    28    51 1   
    54    28    52 1   
    55    29    46 1   
    56    29    47 1   
@<TRIPOS>SUBSTRUCTURE
     1 X25         1 TEMP              0 ****  ****    0 ROOT
