@<TRIPOS>MOLECULE
X26
   96   102     1     0     0
SMALL
No Charge or Current Charge


@<TRIPOS>ATOM
      1 O1          10.7100     8.1480    -1.4570 o          1 X26      -0.558000
      2 C27          9.5400     8.3270    -1.7790 c          1 X26       0.588600
      3 N1           9.0750     7.8560    -3.0450 n          1 X26      -0.296000
      4 C28         10.0510     7.1380    -3.9000 c3         1 X26       0.091300
      5 C19          7.7980     8.1940    -3.6490 ca         1 X26      -0.104400
      6 C18          7.7590     8.7170    -4.9610 ca         1 X26       0.136900
      7 N4           6.6250     9.1780    -5.5160 nb         1 X26      -0.233000
      8 C26          8.6200     9.0330    -0.8080 ca         1 X26      -0.152600
      9 C25          9.1810     9.9380     0.1230 ca         1 X26      -0.047000
     10 C24          8.3730    10.6000     1.0630 ca         1 X26      -0.132000
     11 C23          6.9930    10.3580     1.0970 ca         1 X26      -0.072000
     12 C22          6.4290     9.4460     0.1920 ca         1 X26      -0.150000
     13 C21          7.2360     8.7840    -0.7490 ca         1 X26       0.305000
     14 N2           6.6450     7.8700    -1.5940 na         1 X26      -0.788100
     15 C29          6.1100     6.5760    -1.1460 c5         1 X26       0.221500
     16 C20          6.6010     8.2970    -2.9030 ca         1 X26       0.375900
     17 N3           5.4690     8.7540    -3.4670 nb         1 X26      -0.270000
     18 C17          5.5340     9.1690    -4.7390 ca         1 X26       0.394900
     19 N5           4.3760     9.6160    -5.3580 nu         1 X26      -0.919900
     20 C14          3.0440     9.8370    -4.9660 ca         1 X26       0.309000
     21 C13          2.0400     9.8600    -5.9690 ca         1 X26       0.085100
     22 C12          0.6930    10.0960    -5.6100 ca         1 X26      -0.141000
     23 C15          2.6800    10.0790    -3.6270 ca         1 X26      -0.128000
     24 C16          1.3390    10.3020    -3.2770 ca         1 X26      -0.069000
     25 C11          0.3270    10.2880    -4.2570 ca         1 X26      -0.139600
     26 C2          -3.5570    10.4500    -4.4730 c6         1 X26       0.094000
     27 C1          -4.4050     9.4710    -3.6330 c6         1 X26      -0.102900
     28 C3          -2.0630     8.6270    -5.1990 c6         1 X26       0.094000
     29 C4          -2.8890     7.5990    -4.3930 c6         1 X26      -0.102900
     30 C           -4.3800     8.0260    -4.2190 c6         1 X26       0.190500
     31 C31          6.1650     5.4390    -2.2000 c5         1 X26      -0.083400
     32 O2           2.4290     9.6720    -7.2930 os         1 X26      -0.384100
     33 C5           1.5070     9.4200    -8.3720 c3         1 X26       0.182300
     34 C6          -1.1090    10.5590    -3.8490 c          1 X26       0.614700
     35 O3          -1.3540    11.3270    -2.9260 o          1 X26      -0.599100
     36 N6          -2.1550     9.9890    -4.6140 n          1 X26      -0.402800
     37 N7          -5.1510     7.0530    -3.3640 n3         1 X26      -0.723600
     38 C30         -6.5870     7.4620    -3.1690 c6         1 X26       0.163800
     39 C33         -7.4080     6.4430    -2.3150 c6         1 X26       0.160800
     40 N8          -7.3660     5.0630    -2.8790 n3         1 X26      -0.719600
     41 C35         -5.9460     4.6380    -3.0480 c6         1 X26       0.160800
     42 C36         -5.1190     5.6490    -3.9060 c6         1 X26       0.163800
     43 C37         -8.1630     4.0980    -2.0920 c3         1 X26       0.153100
     44 C7           6.9310     5.8860    -0.0260 c5         1 X26      -0.083400
     45 C8           6.2640     4.4850     0.0700 c5         1 X26      -0.079400
     46 C9           0.9390     7.9920    -8.2120 c3         1 X26      -0.107600
     47 C10          2.3080     9.5820    -9.6770 c3         1 X26      -0.107600
     48 C32          5.7320     4.1990    -1.3700 c5         1 X26      -0.079400
     49 H1          10.5680     6.3670    -3.3150 h1         1 X26       0.048700
     50 H2           9.5360     6.6460    -4.7350 h1         1 X26       0.048700
     51 H3          10.7880     7.8470    -4.2970 h1         1 X26       0.048700
     52 H4           8.6510     8.7680    -5.5830 h4         1 X26       0.032100
     53 H5          10.2510    10.1400     0.1150 ha         1 X26       0.135000
     54 H6           8.8190    11.3000     1.7660 ha         1 X26       0.122000
     55 H7           6.3640    10.8680     1.8240 ha         1 X26       0.118000
     56 H8           5.3620     9.2460     0.2220 ha         1 X26       0.124000
     57 H9           5.0720     6.7230    -0.8120 h1         1 X26       0.047700
     58 H10          4.4760     9.6740    -6.3730 hn         1 X26       0.532000
     59 H11         -0.0770    10.1560    -6.3720 ha         1 X26       0.124000
     60 H12          3.4330    10.1140    -2.8480 ha         1 X26       0.153000
     61 H13          1.0850    10.4840    -2.2340 ha         1 X26       0.131000
     62 H15         -3.9990    10.5420    -5.4760 h1         1 X26       0.057950
     63 H16         -5.4260     9.8680    -3.6060 hc         1 X26       0.057450
     64 H17         -4.0380     9.4610    -2.5980 hc         1 X26       0.057450
     65 H18         -1.0240     8.2760    -5.2270 h1         1 X26       0.057950
     66 H19         -2.4260     8.6590    -6.2370 h1         1 X26       0.057950
     67 H20         -2.8130     6.6400    -4.9200 hc         1 X26       0.057450
     68 H21         -2.4280     7.4560    -3.4060 hc         1 X26       0.057450
     69 H22         -4.8350     8.0630    -5.2200 h1         1 X26       0.018700
     70 H23          5.4940     5.6210    -3.0470 hc         1 X26       0.054950
     71 H24          7.1760     5.3160    -2.6070 hc         1 X26       0.054950
     72 H25          0.6920    10.1540    -8.3830 h1         1 X26       0.046700
     73 H27         -6.6550     8.4280    -2.6520 h1         1 X26       0.038200
     74 H28         -7.0820     7.5800    -4.1440 h1         1 X26       0.038200
     75 H29         -8.4480     6.7960    -2.2530 h1         1 X26       0.038700
     76 H30         -7.0080     6.4450    -1.2900 h1         1 X26       0.038700
     77 H32         -5.9010     3.6510    -3.5310 h1         1 X26       0.038700
     78 H33         -5.4620     4.5360    -2.0660 h1         1 X26       0.038700
     79 H34         -4.0920     5.2620    -3.9380 h1         1 X26       0.038200
     80 H35         -5.5050     5.6320    -4.9360 h1         1 X26       0.038200
     81 H36         -9.2100     4.4220    -2.0270 h1         1 X26       0.031367
     82 H37         -8.1440     3.1050    -2.5620 h1         1 X26       0.031367
     83 H38         -7.7680     4.0030    -1.0710 h1         1 X26       0.031367
     84 H39          7.9910     5.8070    -0.2980 hc         1 X26       0.054950
     85 H40          6.8820     6.4300     0.9240 hc         1 X26       0.054950
     86 H41          5.4390     4.4900     0.7920 hc         1 X26       0.046450
     87 H42          6.9750     3.7220     0.4080 hc         1 X26       0.046450
     88 H43          0.3480     7.8980    -7.2950 hc         1 X26       0.048700
     89 H44          0.2860     7.7450    -9.0570 hc         1 X26       0.048700
     90 H45          1.7490     7.2540    -8.1770 hc         1 X26       0.048700
     91 H46          2.7080    10.5990    -9.7570 hc         1 X26       0.048700
     92 H47          3.1460     8.8750    -9.7130 hc         1 X26       0.048700
     93 H48          1.6660     9.3990   -10.5470 hc         1 X26       0.048700
     94 H49          4.6410     4.0920    -1.3650 hc         1 X26       0.046450
     95 H50          6.1400     3.2700    -1.7860 hc         1 X26       0.046450
     96 H14         -3.5910    11.4510    -4.0200 h1         1 X26       0.057950
@<TRIPOS>BOND
     1     1     2 2   
     2     2     3 1   
     3     2     8 1   
     4     3     4 1   
     5     3     5 1   
     6     4    49 1   
     7     4    50 1   
     8     4    51 1   
     9     5     6 ar  
    10     5    16 ar  
    11     6     7 ar  
    12     6    52 1   
    13     7    18 ar  
    14     8     9 ar  
    15     8    13 ar  
    16     9    10 ar  
    17     9    53 1   
    18    10    11 ar  
    19    10    54 1   
    20    11    12 ar  
    21    11    55 1   
    22    12    13 ar  
    23    12    56 1   
    24    13    14 1   
    25    14    15 1   
    26    14    16 1   
    27    15    31 1   
    28    15    44 1   
    29    15    57 1   
    30    16    17 ar  
    31    17    18 ar  
    32    18    19 1   
    33    19    20 1   
    34    19    58 1   
    35    20    21 ar  
    36    20    23 ar  
    37    21    22 ar  
    38    21    32 1   
    39    22    25 ar  
    40    22    59 1   
    41    23    24 ar  
    42    23    60 1   
    43    24    25 ar  
    44    24    61 1   
    45    25    34 1   
    46    26    27 1   
    47    26    36 1   
    48    26    62 1   
    49    26    96 1   
    50    27    30 1   
    51    27    63 1   
    52    27    64 1   
    53    28    29 1   
    54    28    36 1   
    55    28    65 1   
    56    28    66 1   
    57    29    30 1   
    58    29    67 1   
    59    29    68 1   
    60    30    37 1   
    61    30    69 1   
    62    31    48 1   
    63    31    70 1   
    64    31    71 1   
    65    32    33 1   
    66    33    46 1   
    67    33    47 1   
    68    33    72 1   
    69    34    35 2   
    70    34    36 1   
    71    37    38 1   
    72    37    42 1   
    73    38    39 1   
    74    38    73 1   
    75    38    74 1   
    76    39    40 1   
    77    39    75 1   
    78    39    76 1   
    79    40    41 1   
    80    40    43 1   
    81    41    42 1   
    82    41    77 1   
    83    41    78 1   
    84    42    79 1   
    85    42    80 1   
    86    43    81 1   
    87    43    82 1   
    88    43    83 1   
    89    44    45 1   
    90    44    84 1   
    91    44    85 1   
    92    45    48 1   
    93    45    86 1   
    94    45    87 1   
    95    46    88 1   
    96    46    89 1   
    97    46    90 1   
    98    47    91 1   
    99    47    92 1   
   100    47    93 1   
   101    48    94 1   
   102    48    95 1   
@<TRIPOS>SUBSTRUCTURE
     1 X26         1 TEMP              0 ****  ****    0 ROOT
