@<TRIPOS>MOLECULE
X26
   96   102     1     0     0
SMALL
abcg2


@<TRIPOS>ATOM
      1 O1          10.6550     7.1770    -1.8000 o          1 X26      -0.558000
      2 C27          9.5540     7.6350    -2.1110 c          1 X26       0.588600
      3 N1           8.9290     7.2260    -3.2510 n          1 X26      -0.296000
      4 C28          9.6040     6.2070    -4.0620 c3         1 X26       0.091300
      5 C19          7.7540     7.8160    -3.7720 ca         1 X26      -0.104400
      6 C18          7.6370     8.1200    -5.1240 ca         1 X26       0.136900
      7 N4           6.5070     8.5410    -5.6810 nb         1 X26      -0.233000
      8 C26          8.9040     8.6600    -1.2430 ca         1 X26      -0.152600
      9 C25          9.7520     9.5690    -0.6050 ca         1 X26      -0.047000
     10 C24          9.2610    10.4930     0.3020 ca         1 X26      -0.132000
     11 C23          7.9010    10.5010     0.5960 ca         1 X26      -0.072000
     12 C22          7.0440     9.6070    -0.0290 ca         1 X26      -0.150000
     13 C21          7.5310     8.6820    -0.9560 ca         1 X26       0.305000
     14 N2           6.6460     7.7820    -1.6190 na         1 X26      -0.788100
     15 C29          5.3830     7.4060    -0.9520 c5         1 X26       0.221500
     16 C20          6.6030     8.0120    -3.0010 ca         1 X26       0.375900
     17 N3           5.4680     8.4360    -3.5440 nb         1 X26      -0.270000
     18 C17          5.4500     8.6650    -4.8580 ca         1 X26       0.394900
     19 N5           4.2970     9.0720    -5.4700 nu         1 X26      -0.919900
     20 C14          3.0270     9.3370    -4.9670 ca         1 X26       0.309000
     21 C13          2.0850     9.8220    -5.9090 ca         1 X26       0.085100
     22 C12          0.7870    10.1000    -5.5160 ca         1 X26      -0.141000
     23 C15          2.6240     9.1670    -3.6420 ca         1 X26      -0.128000
     24 C16          1.3230     9.4700    -3.2570 ca         1 X26      -0.069000
     25 C11          0.3960     9.9230    -4.1850 ca         1 X26      -0.139600
     26 C2          -3.3880    10.2540    -4.0910 c6         1 X26       0.094000
     27 C1          -4.1350     9.1420    -3.3600 c6         1 X26      -0.102900
     28 C3          -2.0200     8.6500    -5.2930 c6         1 X26       0.094000
     29 C4          -2.7390     7.4880    -4.6080 c6         1 X26      -0.102900
     30 C           -4.1670     7.8450    -4.1790 c6         1 X26       0.190500
     31 C31          4.6830     6.2410    -1.6870 c5         1 X26      -0.083400
     32 O2           2.5740     9.9940    -7.1670 os         1 X26      -0.384100
     33 C5           1.6840    10.2700    -8.2770 c3         1 X26       0.182300
     34 C6          -0.9790    10.2960    -3.7290 c          1 X26       0.614700
     35 O3          -1.1160    11.0350    -2.7460 o          1 X26      -0.599100
     36 N6          -2.0350     9.8420    -4.4470 n          1 X26      -0.402800
     37 N7          -4.7910     6.7490    -3.4160 n3         1 X26      -0.723600
     38 C30         -6.1660     7.0600    -3.0170 c6         1 X26       0.163800
     39 C33         -6.7690     5.9420    -2.1850 c6         1 X26       0.160800
     40 N8          -6.7580     4.6800    -2.9120 n3         1 X26      -0.719600
     41 C35         -5.3920     4.3620    -3.3050 c6         1 X26       0.160800
     42 C36         -4.7860     5.4760    -4.1410 c6         1 X26       0.163800
     43 C37         -7.3600     3.6070    -2.1400 c3         1 X26       0.153100
     44 C7           5.6420     6.8800     0.4890 c5         1 X26      -0.083400
     45 C8           5.1350     5.4280     0.5150 c5         1 X26      -0.079400
     46 C9           0.9040     9.0210    -8.6540 c3         1 X26      -0.107600
     47 C10          2.5760    10.7670    -9.3980 c3         1 X26      -0.107600
     48 C32          4.0620     5.3970    -0.5730 c5         1 X26      -0.079400
     49 H1          10.0350     5.4580    -3.4040 h1         1 X26       0.048700
     50 H2           8.8690     5.7420    -4.7140 h1         1 X26       0.048700
     51 H3          10.4020     6.6430    -4.6660 h1         1 X26       0.048700
     52 H4           8.4860     7.9930    -5.7860 h4         1 X26       0.032100
     53 H5          10.8100     9.5260    -0.8260 ha         1 X26       0.135000
     54 H6           9.9320    11.1940     0.7830 ha         1 X26       0.122000
     55 H7           7.5000    11.2100     1.3090 ha         1 X26       0.118000
     56 H8           5.9900     9.6290     0.2030 ha         1 X26       0.124000
     57 H9           4.7070     8.2640    -0.9190 h1         1 X26       0.047700
     58 H10          4.3960     9.2340    -6.4620 hn         1 X26       0.532000
     59 H11          0.0680    10.4630    -6.2340 ha         1 X26       0.124000
     60 H12          3.3340     8.8000    -2.9220 ha         1 X26       0.153000
     61 H13          1.0300     9.3420    -2.2240 ha         1 X26       0.131000
     62 H15         -3.9100    10.5050    -5.0190 h1         1 X26       0.057950
     63 H16         -5.1410     9.5020    -3.1510 hc         1 X26       0.057450
     64 H17         -3.6470     8.9440    -2.4010 hc         1 X26       0.057450
     65 H18         -0.9980     8.3650    -5.5150 h1         1 X26       0.057950
     66 H19         -2.5130     8.8960    -6.2380 h1         1 X26       0.057950
     67 H20         -2.7380     6.6520    -5.3070 hc         1 X26       0.057450
     68 H21         -2.1700     7.1820    -3.7250 hc         1 X26       0.057450
     69 H22         -4.7560     8.0390    -5.0950 h1         1 X26       0.018700
     70 H23          3.9590     6.5870    -2.4200 hc         1 X26       0.054950
     71 H24          5.4360     5.6510    -2.2150 hc         1 X26       0.054950
     72 H25          1.0030    11.0710    -7.9790 h1         1 X26       0.046700
     73 H27         -6.1800     7.9680    -2.4190 h1         1 X26       0.038200
     74 H28         -6.8000     7.2340    -3.9050 h1         1 X26       0.038200
     75 H29         -7.8010     6.1970    -1.9340 h1         1 X26       0.038700
     76 H30         -6.2070     5.8550    -1.2370 h1         1 X26       0.038700
     77 H32         -5.3960     3.4380    -3.8880 h1         1 X26       0.038700
     78 H33         -4.7560     4.1940    -2.4170 h1         1 X26       0.038700
     79 H34         -3.7640     5.1940    -4.3830 h1         1 X26       0.038200
     80 H35         -5.3440     5.5630    -5.0900 h1         1 X26       0.038200
     81 H36         -8.3900     3.8660    -1.8890 h1         1 X26       0.031367
     82 H37         -7.3660     2.6880    -2.7280 h1         1 X26       0.031367
     83 H38         -6.8170     3.4090    -1.2000 h1         1 X26       0.031367
     84 H39          6.6940     6.9490     0.7610 hc         1 X26       0.054950
     85 H40          5.0870     7.4890     1.2030 hc         1 X26       0.054950
     86 H41          4.7680     5.1340     1.4990 hc         1 X26       0.046450
     87 H42          5.9450     4.7440     0.2460 hc         1 X26       0.046450
     88 H43          0.3010     8.6550    -7.8230 hc         1 X26       0.048700
     89 H44          0.2360     9.2450    -9.4870 hc         1 X26       0.048700
     90 H45          1.5920     8.2310    -8.9620 hc         1 X26       0.048700
     91 H46          3.1240    11.6580    -9.0900 hc         1 X26       0.048700
     92 H47          3.2920     9.9940    -9.6850 hc         1 X26       0.048700
     93 H48          1.9690    11.0160   -10.2690 hc         1 X26       0.048700
     94 H49          3.1440     5.8690    -0.2090 hc         1 X26       0.046450
     95 H50          3.8070     4.3900    -0.9050 hc         1 X26       0.046450
     96 H14         -3.3290    11.1470    -3.4760 h1         1 X26       0.057950
@<TRIPOS>BOND
     1     1     2 2   
     2     2     3 1   
     3     2     8 1   
     4     3     4 1   
     5     3     5 1   
     6     4    49 1   
     7     4    50 1   
     8     4    51 1   
     9     5     6 ar  
    10     5    16 ar  
    11     6     7 ar  
    12     6    52 1   
    13     7    18 ar  
    14     8     9 ar  
    15     8    13 ar  
    16     9    10 ar  
    17     9    53 1   
    18    10    11 ar  
    19    10    54 1   
    20    11    12 ar  
    21    11    55 1   
    22    12    13 ar  
    23    12    56 1   
    24    13    14 1   
    25    14    15 1   
    26    14    16 1   
    27    15    31 1   
    28    15    44 1   
    29    15    57 1   
    30    16    17 ar  
    31    17    18 ar  
    32    18    19 1   
    33    19    20 1   
    34    19    58 1   
    35    20    21 ar  
    36    20    23 ar  
    37    21    22 ar  
    38    21    32 1   
    39    22    25 ar  
    40    22    59 1   
    41    23    24 ar  
    42    23    60 1   
    43    24    25 ar  
    44    24    61 1   
    45    25    34 1   
    46    26    27 1   
    47    26    36 1   
    48    26    62 1   
    49    26    96 1   
    50    27    30 1   
    51    27    63 1   
    52    27    64 1   
    53    28    29 1   
    54    28    36 1   
    55    28    65 1   
    56    28    66 1   
    57    29    30 1   
    58    29    67 1   
    59    29    68 1   
    60    30    37 1   
    61    30    69 1   
    62    31    48 1   
    63    31    70 1   
    64    31    71 1   
    65    32    33 1   
    66    33    46 1   
    67    33    47 1   
    68    33    72 1   
    69    34    35 2   
    70    34    36 1   
    71    37    38 1   
    72    37    42 1   
    73    38    39 1   
    74    38    73 1   
    75    38    74 1   
    76    39    40 1   
    77    39    75 1   
    78    39    76 1   
    79    40    41 1   
    80    40    43 1   
    81    41    42 1   
    82    41    77 1   
    83    41    78 1   
    84    42    79 1   
    85    42    80 1   
    86    43    81 1   
    87    43    82 1   
    88    43    83 1   
    89    44    45 1   
    90    44    84 1   
    91    44    85 1   
    92    45    48 1   
    93    45    86 1   
    94    45    87 1   
    95    46    88 1   
    96    46    89 1   
    97    46    90 1   
    98    47    91 1   
    99    47    92 1   
   100    47    93 1   
   101    48    94 1   
   102    48    95 1   
@<TRIPOS>SUBSTRUCTURE
     1 X26         1 TEMP              0 ****  ****    0 ROOT
