@<TRIPOS>MOLECULE
X27
   69    73     1     0     0
SMALL
No Charge or Current Charge


@<TRIPOS>ATOM
      1 O1         -11.9070     5.0750     0.0540 o          1 X27      -0.560000
      2 C27        -10.8250     5.6520    -0.0030 c          1 X27       0.585600
      3 N7          -9.6180     4.8880     0.0400 n          1 X27      -0.297000
      4 C28         -9.7600     3.4120     0.1060 c3         1 X27       0.091300
      5 C19         -8.2780     5.4210     0.2220 ca         1 X27      -0.120400
      6 C18         -7.4490     4.8890     1.2350 ca         1 X27       0.132900
      7 N4          -6.2600     5.4290     1.5480 nb         1 X27      -0.227000
      8 C26        -10.8220     7.1600    -0.1390 ca         1 X27      -0.165600
      9 C25        -11.9450     7.8820     0.3320 ca         1 X27      -0.041000
     10 C24        -12.0100     9.2800     0.2030 ca         1 X27      -0.136000
     11 C23        -10.9610     9.9790    -0.4090 ca         1 X27      -0.069000
     12 C22         -9.8530     9.2710    -0.8960 ca         1 X27      -0.161000
     13 C21         -9.7860     7.8730    -0.7690 ca         1 X27       0.336000
     14 N6          -8.6870     7.2230    -1.2780 na         1 X27      -0.825100
     15 C29         -8.5130     7.0580    -2.7390 c3         1 X27       0.249500
     16 C20         -7.8390     6.6310    -0.3680 ca         1 X27       0.413900
     17 N5          -6.6480     7.1680    -0.0460 nb         1 X27      -0.293000
     18 C17         -5.9200     6.5440     0.8860 ca         1 X27       0.400900
     19 N3          -4.6880     7.1310     1.1380 nu         1 X27      -0.927900
     20 C14         -3.6650     6.9120     2.0620 ca         1 X27       0.331000
     21 C13         -3.8930     6.3410     3.3240 ca         1 X27      -0.149000
     22 C12         -2.8310     6.1550     4.2250 ca         1 X27      -0.104000
     23 C15         -2.3720     7.3190     1.7140 ca         1 X27      -0.242000
     24 C16         -1.2910     7.1370     2.6100 ca         1 X27       0.155100
     25 C11         -1.5190     6.5440     3.8870 ca         1 X27       0.215000
     26 N1          -0.4640     6.3460     4.8240 nh         1 X27      -0.764400
     27 C2           0.2520     7.5230     5.4100 c6         1 X27       0.187800
     28 C1           1.6810     7.1540     5.9260 c6         1 X27       0.160300
     29 C3          -0.4340     5.1460     5.7190 c6         1 X27       0.187800
     30 C4           1.0080     4.8210     6.2310 c6         1 X27       0.160300
     31 N            1.6750     5.9960     6.8720 n3         1 X27      -0.720600
     32 C            3.0230     5.6750     7.3900 c3         1 X27       0.152100
     33 C31         -8.6040     5.5810    -3.1730 c3         1 X27      -0.102600
     34 C32         -7.2210     7.7270    -3.2540 c3         1 X27      -0.102600
     35 O33         -0.0000     7.5120     2.2580 os         1 X27      -0.335100
     36 C34          0.3200     8.1110     0.9910 c3         1 X27       0.145900
     37 H1          -8.7950     2.9270    -0.0910 h1         1 X27       0.049033
     38 H2         -10.1160     3.1170     1.1010 h1         1 X27       0.049033
     39 H3         -10.4740     3.0670    -0.6530 h1         1 X27       0.049033
     40 H4          -7.7400     4.0120     1.8110 h4         1 X27       0.031100
     41 H5         -12.7720     7.3610     0.8100 ha         1 X27       0.135000
     42 H6         -12.8770     9.8200     0.5780 ha         1 X27       0.122000
     43 H7         -11.0080    11.0620    -0.5100 ha         1 X27       0.116000
     44 H8          -9.0400     9.8070    -1.3760 ha         1 X27       0.122000
     45 H9          -9.3480     7.5790    -3.2290 h1         1 X27       0.054700
     46 H10         -4.4540     7.8310     0.4370 hn         1 X27       0.506000
     47 H11         -4.8950     6.0570     3.6280 ha         1 X27       0.151000
     48 H12         -3.0390     5.7210     5.1990 ha         1 X27       0.118000
     49 H13         -2.2160     7.7660     0.7380 ha         1 X27       0.114000
     50 H14          0.3460     8.3310     4.6700 h1         1 X27       0.043950
     51 H15         -0.3320     7.9250     6.2510 h1         1 X27       0.043950
     52 H16          2.3140     6.9250     5.0550 h1         1 X27       0.039200
     53 H17          2.1160     8.0400     6.4110 h1         1 X27       0.039200
     54 H18         -1.0850     5.3140     6.5890 h1         1 X27       0.043950
     55 H19         -0.8190     4.2640     5.1850 h1         1 X27       0.043950
     56 H20          0.9450     3.9840     6.9420 h1         1 X27       0.039200
     57 H21          1.6070     4.4700     5.3770 h1         1 X27       0.039200
     58 H23          3.4610     6.5460     7.8940 h1         1 X27       0.031033
     59 H24          2.9730     4.8530     8.1160 h1         1 X27       0.031033
     60 H25          3.6950     5.3750     6.5750 h1         1 X27       0.031033
     61 H26         -9.5600     5.1460    -2.8580 hc         1 X27       0.045200
     62 H27         -8.5390     5.4970    -4.2640 hc         1 X27       0.045200
     63 H28         -7.7920     4.9890    -2.7350 hc         1 X27       0.045200
     64 H29         -7.1810     8.7770    -2.9430 hc         1 X27       0.045200
     65 H30         -6.3310     7.2160    -2.8680 hc         1 X27       0.045200
     66 H31         -7.1840     7.6950    -4.3490 hc         1 X27       0.045200
     67 H32          1.3940     8.3250     0.9330 h1         1 X27       0.040700
     68 H33          0.0630     7.4370     0.1640 h1         1 X27       0.040700
     69 H34         -0.2220     9.0560     0.8580 h1         1 X27       0.040700
@<TRIPOS>BOND
     1     1     2 2   
     2     2     3 1   
     3     2     8 1   
     4     3     4 1   
     5     3     5 1   
     6     4    37 1   
     7     4    38 1   
     8     4    39 1   
     9     5     6 ar  
    10     5    16 ar  
    11     6     7 ar  
    12     6    40 1   
    13     7    18 ar  
    14     8     9 ar  
    15     8    13 ar  
    16     9    10 ar  
    17     9    41 1   
    18    10    11 ar  
    19    10    42 1   
    20    11    12 ar  
    21    11    43 1   
    22    12    13 ar  
    23    12    44 1   
    24    13    14 1   
    25    14    15 1   
    26    14    16 1   
    27    15    33 1   
    28    15    34 1   
    29    15    45 1   
    30    16    17 ar  
    31    17    18 ar  
    32    18    19 1   
    33    19    20 1   
    34    19    46 1   
    35    20    21 ar  
    36    20    23 ar  
    37    21    22 ar  
    38    21    47 1   
    39    22    25 ar  
    40    22    48 1   
    41    23    24 ar  
    42    23    49 1   
    43    24    25 ar  
    44    24    35 1   
    45    25    26 1   
    46    26    27 1   
    47    26    29 1   
    48    27    28 1   
    49    27    50 1   
    50    27    51 1   
    51    28    31 1   
    52    28    52 1   
    53    28    53 1   
    54    29    30 1   
    55    29    54 1   
    56    29    55 1   
    57    30    31 1   
    58    30    56 1   
    59    30    57 1   
    60    31    32 1   
    61    32    58 1   
    62    32    59 1   
    63    32    60 1   
    64    33    61 1   
    65    33    62 1   
    66    33    63 1   
    67    34    64 1   
    68    34    65 1   
    69    34    66 1   
    70    35    36 1   
    71    36    67 1   
    72    36    68 1   
    73    36    69 1   
@<TRIPOS>SUBSTRUCTURE
     1 X27         1 TEMP              0 ****  ****    0 ROOT
