@<TRIPOS>MOLECULE
X27
   69    73     1     0     0
SMALL
abcg2


@<TRIPOS>ATOM
      1 O1         -12.0350     5.0080     0.1740 o          1 X27      -0.560000
      2 C27        -10.9710     5.6310     0.1930 c          1 X27       0.585600
      3 N7          -9.8150     5.0160     0.5530 n          1 X27      -0.297000
      4 C28         -9.8800     3.5810     0.8510 c3         1 X27       0.091300
      5 C19         -8.5910     5.6840     0.7950 ca         1 X27      -0.120400
      6 C18         -7.8310     5.3760     1.9090 ca         1 X27       0.132900
      7 N4          -6.5690     5.7780     2.0820 nb         1 X27      -0.227000
      8 C26        -10.9520     7.0700    -0.1990 ca         1 X27      -0.165600
      9 C25        -12.1190     7.7890     0.0850 ca         1 X27      -0.041000
     10 C24        -12.3140     9.0740    -0.3880 ca         1 X27      -0.136000
     11 C23        -11.3380     9.6450    -1.1980 ca         1 X27      -0.069000
     12 C22        -10.1690     8.9560    -1.4800 ca         1 X27      -0.161000
     13 C21         -9.9380     7.6720    -0.9660 ca         1 X27       0.336000
     14 N6          -8.7070     7.0240    -1.2360 na         1 X27      -0.825100
     15 C29         -8.0240     7.2890    -2.5280 c3         1 X27       0.249500
     16 C20         -7.9880     6.5440    -0.1460 ca         1 X27       0.413900
     17 N5          -6.7260     6.9120    -0.0040 nb         1 X27      -0.293000
     18 C17         -6.0480     6.4910     1.0790 ca         1 X27       0.400900
     19 N3          -4.7380     6.8770     1.0950 nu         1 X27      -0.927900
     20 C14         -3.6990     6.6330     2.0020 ca         1 X27       0.331000
     21 C13         -3.8190     5.9220     3.1920 ca         1 X27      -0.149000
     22 C12         -2.7000     5.7660     4.0100 ca         1 X27      -0.104000
     23 C15         -2.4430     7.1560     1.6480 ca         1 X27      -0.242000
     24 C16         -1.3340     6.9730     2.4570 ca         1 X27       0.155100
     25 C11         -1.4470     6.2740     3.6850 ca         1 X27       0.215000
     26 N1          -0.3010     6.0870     4.4910 nh         1 X27      -0.764400
     27 C2           0.2390     7.3110     5.0960 c6         1 X27       0.187800
     28 C1           1.6150     7.0490     5.6800 c6         1 X27       0.160300
     29 C3          -0.3570     5.0110     5.4710 c6         1 X27       0.187800
     30 C4           1.0300     4.7580     6.0390 c6         1 X27       0.160300
     31 N            1.5700     5.9650     6.6550 n3         1 X27      -0.720600
     32 C            2.8760     5.7250     7.2460 c3         1 X27       0.152100
     33 C31         -7.3920     5.9980    -3.0440 c3         1 X27      -0.102600
     34 C32         -7.0180     8.4480    -2.5580 c3         1 X27      -0.102600
     35 O33         -0.0920     7.4180     2.1260 os         1 X27      -0.335100
     36 C34          0.0740     8.1370     0.9070 c3         1 X27       0.145900
     37 H1          -8.8800     3.1650     0.7610 h1         1 X27       0.049033
     38 H2         -10.2600     3.3970     1.8580 h1         1 X27       0.049033
     39 H3         -10.5430     3.1010     0.1370 h1         1 X27       0.049033
     40 H4          -8.2440     4.7460     2.6880 h4         1 X27       0.031100
     41 H5         -12.8870     7.2980     0.6670 ha         1 X27       0.135000
     42 H6         -13.2200     9.6140    -0.1490 ha         1 X27       0.122000
     43 H7         -11.4760    10.6390    -1.6050 ha         1 X27       0.116000
     44 H8          -9.4220     9.4300    -2.0950 ha         1 X27       0.122000
     45 H9          -8.8450     7.5410    -3.1990 h1         1 X27       0.054700
     46 H10         -4.4820     7.4120     0.2800 hn         1 X27       0.506000
     47 H11         -4.7680     5.5070     3.4840 ha         1 X27       0.151000
     48 H12         -2.8230     5.2230     4.9370 ha         1 X27       0.118000
     49 H13         -2.3490     7.6900     0.7130 ha         1 X27       0.114000
     50 H14          0.3070     8.0850     4.3360 h1         1 X27       0.043950
     51 H15         -0.4350     7.6660     5.8910 h1         1 X27       0.043950
     52 H16          2.3150     6.8130     4.8590 h1         1 X27       0.039200
     53 H17          1.9770     7.9520     6.1750 h1         1 X27       0.039200
     54 H18         -1.0420     5.2480     6.3010 h1         1 X27       0.043950
     55 H19         -0.7210     4.1050     4.9840 h1         1 X27       0.043950
     56 H20          0.9730     3.9720     6.7960 h1         1 X27       0.039200
     57 H21          1.6900     4.3960     5.2310 h1         1 X27       0.039200
     58 H23          3.2330     6.6340     7.7330 h1         1 X27       0.031033
     59 H24          2.8030     4.9350     7.9960 h1         1 X27       0.031033
     60 H25          3.6270     5.4200     6.4970 h1         1 X27       0.031033
     61 H26         -8.1340     5.2010    -3.1060 hc         1 X27       0.045200
     62 H27         -6.9810     6.1700    -4.0400 hc         1 X27       0.045200
     63 H28         -6.5780     5.6710    -2.3960 hc         1 X27       0.045200
     64 H29         -7.3640     9.3090    -1.9870 hc         1 X27       0.045200
     65 H30         -6.0570     8.1440    -2.1530 hc         1 X27       0.045200
     66 H31         -6.8800     8.7620    -3.5950 hc         1 X27       0.045200
     67 H32          1.1290     8.3980     0.8590 h1         1 X27       0.040700
     68 H33         -0.1900     7.5190     0.0450 h1         1 X27       0.040700
     69 H34         -0.5300     9.0480     0.9010 h1         1 X27       0.040700
@<TRIPOS>BOND
     1     1     2 2   
     2     2     3 1   
     3     2     8 1   
     4     3     4 1   
     5     3     5 1   
     6     4    37 1   
     7     4    38 1   
     8     4    39 1   
     9     5     6 ar  
    10     5    16 ar  
    11     6     7 ar  
    12     6    40 1   
    13     7    18 ar  
    14     8     9 ar  
    15     8    13 ar  
    16     9    10 ar  
    17     9    41 1   
    18    10    11 ar  
    19    10    42 1   
    20    11    12 ar  
    21    11    43 1   
    22    12    13 ar  
    23    12    44 1   
    24    13    14 1   
    25    14    15 1   
    26    14    16 1   
    27    15    33 1   
    28    15    34 1   
    29    15    45 1   
    30    16    17 ar  
    31    17    18 ar  
    32    18    19 1   
    33    19    20 1   
    34    19    46 1   
    35    20    21 ar  
    36    20    23 ar  
    37    21    22 ar  
    38    21    47 1   
    39    22    25 ar  
    40    22    48 1   
    41    23    24 ar  
    42    23    49 1   
    43    24    25 ar  
    44    24    35 1   
    45    25    26 1   
    46    26    27 1   
    47    26    29 1   
    48    27    28 1   
    49    27    50 1   
    50    27    51 1   
    51    28    31 1   
    52    28    52 1   
    53    28    53 1   
    54    29    30 1   
    55    29    54 1   
    56    29    55 1   
    57    30    31 1   
    58    30    56 1   
    59    30    57 1   
    60    31    32 1   
    61    32    58 1   
    62    32    59 1   
    63    32    60 1   
    64    33    61 1   
    65    33    62 1   
    66    33    63 1   
    67    34    64 1   
    68    34    65 1   
    69    34    66 1   
    70    35    36 1   
    71    36    67 1   
    72    36    68 1   
    73    36    69 1   
@<TRIPOS>SUBSTRUCTURE
     1 X27         1 TEMP              0 ****  ****    0 ROOT
