@<TRIPOS>MOLECULE
X28
   47    49     1     0     0
SMALL
abcg2


@<TRIPOS>ATOM
      1 C1           3.3760    -4.0390     1.2450 ca         1 X28      -0.113000
      2 C2           2.3140    -3.9440     0.3550 ca         1 X28      -0.107500
      3 C3           2.2820    -2.9220    -0.5860 ca         1 X28      -0.102500
      4 C4           3.3050    -1.9800    -0.6490 ca         1 X28      -0.081300
      5 C5           4.3660    -2.0850     0.2480 ca         1 X28      -0.102500
      6 C6           4.4040    -3.1060     1.1870 ca         1 X28      -0.107500
      7 C7           3.2470    -0.8390    -1.6350 c3         1 X28       0.015200
      8 C8           2.6510     0.3900    -0.9970 ca         1 X28      -0.060300
      9 C9           3.4570     1.4070    -0.5010 ca         1 X28      -0.124000
     10 C10          2.8880     2.5070     0.1220 ca         1 X28      -0.097000
     11 C11          1.5100     2.6120     0.2720 ca         1 X28      -0.149600
     12 C12          0.6800     1.6040    -0.2370 cp         1 X28       0.038000
     13 C13          1.2720     0.5130    -0.8660 ca         1 X28      -0.101000
     14 C14         -0.7960     1.6830    -0.1900 cp         1 X28      -0.055000
     15 C15         -1.4680     2.8250    -0.6230 ca         1 X28      -0.114000
     16 C16         -2.8530     2.8550    -0.6270 ca         1 X28      -0.118000
     17 C17         -3.5810     1.7490    -0.2070 ca         1 X28      -0.107000
     18 C18         -2.9340     0.5950     0.2250 ca         1 X28      -0.044300
     19 C19         -1.5400     0.5830     0.2270 ca         1 X28      -0.089000
     20 C20         -3.7040    -0.6320     0.6250 c3         1 X28      -0.024100
     21 C21         -3.7110    -1.6750    -0.4900 c3         1 X28      -0.203400
     22 C22         -4.4890    -2.9670    -0.1820 c          1 X28       0.717000
     23 O23         -5.3050    -2.9420     0.7590 o          1 X28      -0.739500
     24 O24         -4.2500    -3.9390    -0.9290 o          1 X28      -0.739500
     25 C25          0.9570     3.7440     1.0830 c          1 X28       0.619700
     26 O26          0.2400     3.5430     2.0510 o          1 X28      -0.578100
     27 N27          1.3460     4.9650     0.6860 nt         1 X28      -0.617000
     28 H1           3.4040    -4.8360     1.9770 ha         1 X28       0.109000
     29 H2           1.5100    -4.6670     0.3900 ha         1 X28       0.114000
     30 H6           5.2380    -3.1750     1.8730 ha         1 X28       0.114000
     31 H3           1.4520    -2.8630    -1.2800 ha         1 X28       0.112000
     32 H5           5.1720    -1.3610     0.2110 ha         1 X28       0.112000
     33 H71C         4.2490    -0.6120    -2.0010 hc         1 X28       0.051200
     34 H72C         2.6500    -1.1310    -2.5010 hc         1 X28       0.051200
     35 H9           4.5340     1.3420    -0.5980 ha         1 X28       0.105000
     36 H13          0.6340    -0.2540    -1.2920 ha         1 X28       0.131000
     37 H10          3.5330     3.2810     0.5200 ha         1 X28       0.105000
     38 H15         -0.9120     3.6860    -0.9750 ha         1 X28       0.093000
     39 H19         -1.0220    -0.3030     0.5780 ha         1 X28       0.120000
     40 H16         -3.3690     3.7440    -0.9680 ha         1 X28       0.097000
     41 H17         -4.6650     1.7840    -0.2190 ha         1 X28       0.113000
     42 H201        -3.2630    -1.0650     1.5270 hc         1 X28       0.054200
     43 H202        -4.7290    -0.3590     0.8810 hc         1 X28       0.054200
     44 H211        -4.1440    -1.2300    -1.3950 hc         1 X28       0.018200
     45 H212        -2.6830    -1.9340    -0.7620 hc         1 X28       0.018200
     46 H271         1.8850     5.1030    -0.1500 hn         1 X28       0.308000
     47 H272         1.0700     5.7830     1.2050 hn         1 X28       0.308000
@<TRIPOS>BOND
     1     1     2 ar  
     2     1     6 ar  
     3     1    28 1   
     4     2     3 ar  
     5     2    29 1   
     6     3     4 ar  
     7     3    31 1   
     8     4     5 ar  
     9     4     7 1   
    10     5     6 ar  
    11     5    32 1   
    12     6    30 1   
    13     7     8 1   
    14     7    33 1   
    15     7    34 1   
    16     8     9 ar  
    17     8    13 ar  
    18     9    10 ar  
    19     9    35 1   
    20    10    11 ar  
    21    10    37 1   
    22    11    12 ar  
    23    11    25 1   
    24    12    13 ar  
    25    12    14 1   
    26    13    36 1   
    27    14    15 ar  
    28    14    19 ar  
    29    15    16 ar  
    30    15    38 1   
    31    16    17 ar  
    32    16    40 1   
    33    17    18 ar  
    34    17    41 1   
    35    18    19 ar  
    36    18    20 1   
    37    19    39 1   
    38    20    21 1   
    39    20    42 1   
    40    20    43 1   
    41    21    22 1   
    42    21    44 1   
    43    21    45 1   
    44    22    23 1   
    45    22    24 1   
    46    25    26 2   
    47    25    27 1   
    48    27    46 1   
    49    27    47 1   
@<TRIPOS>SUBSTRUCTURE
     1 X28         1 TEMP              0 ****  ****    0 ROOT
