@<TRIPOS>MOLECULE
X28
   47    49     1     0     0
SMALL
No Charge or Current Charge


@<TRIPOS>ATOM
      1 C1           3.3710    -4.2190     0.9460 ca         1 X28      -0.113000
      2 C2           2.4010    -4.0760    -0.0610 ca         1 X28      -0.107500
      3 C3           2.4160    -2.9470    -0.8980 ca         1 X28      -0.102500
      4 C4           3.4020    -1.9540    -0.7340 ca         1 X28      -0.081300
      5 C5           4.3700    -2.1010     0.2790 ca         1 X28      -0.102500
      6 C6           4.3550    -3.2300     1.1160 ca         1 X28      -0.107500
      7 C7           3.4170    -0.7240    -1.6330 c3         1 X28       0.015200
      8 C8           2.7560     0.4690    -0.9540 ca         1 X28      -0.060300
      9 C9           3.5350     1.4950    -0.3940 ca         1 X28      -0.124000
     10 C10          2.9200     2.5850     0.2390 ca         1 X28      -0.097000
     11 C11          1.5120     2.6580     0.3250 ca         1 X28      -0.149600
     12 C12          0.6970     1.6400    -0.2590 cp         1 X28       0.038000
     13 C13          1.3540     0.5510    -0.8840 ca         1 X28      -0.101000
     14 C14         -0.7960     1.6740    -0.3070 cp         1 X28      -0.055000
     15 C15         -1.4860     2.7450    -0.9250 ca         1 X28      -0.114000
     16 C16         -2.8880     2.7520    -0.9990 ca         1 X28      -0.118000
     17 C17         -3.6260     1.6830    -0.4640 ca         1 X28      -0.107000
     18 C18         -2.9640     0.6000     0.1450 ca         1 X28      -0.044300
     19 C19         -1.5570     0.6000     0.2140 ca         1 X28      -0.089000
     20 C20         -3.7600    -0.5670     0.7180 c3         1 X28      -0.024100
     21 C21         -3.8530    -1.7550    -0.2690 c3         1 X28      -0.203400
     22 C22         -4.6780    -2.8930     0.3550 c          1 X28       0.717000
     23 O23         -5.8890    -2.8840     0.1900 o          1 X28      -0.739500
     24 O24         -4.0940    -3.7250     1.0320 o          1 X28      -0.739500
     25 C25          0.8290     3.7970     1.0520 c          1 X28       0.619700
     26 O26         -0.1970     3.6840     1.7030 o          1 X28      -0.578100
     27 N27          1.4570     4.9940     1.0250 nt         1 X28      -0.617000
     28 H1           3.3590    -5.0930     1.5940 ha         1 X28       0.109000
     29 H2           1.6380    -4.8400    -0.1930 ha         1 X28       0.114000
     30 H6           5.1050    -3.3380     1.8970 ha         1 X28       0.114000
     31 H3           1.6600    -2.8440    -1.6730 ha         1 X28       0.112000
     32 H5           5.1320    -1.3380     0.4190 ha         1 X28       0.112000
     33 H71C         4.4500    -0.4800    -1.9090 hc         1 X28       0.051200
     34 H72C         2.9070    -0.9400    -2.5800 hc         1 X28       0.051200
     35 H9           4.6210     1.4440    -0.4400 ha         1 X28       0.105000
     36 H13          0.7540    -0.2350    -1.3360 ha         1 X28       0.131000
     37 H10          3.5450     3.3540     0.6880 ha         1 X28       0.105000
     38 H15         -0.9240     3.5720    -1.3530 ha         1 X28       0.093000
     39 H19         -1.0450    -0.2390     0.6790 ha         1 X28       0.120000
     40 H16         -3.4030     3.5830    -1.4740 ha         1 X28       0.097000
     41 H17         -4.7110     1.6940    -0.5280 ha         1 X28       0.113000
     42 H201        -3.2980    -0.9100     1.6520 hc         1 X28       0.054200
     43 H202        -4.7730    -0.2390     0.9830 hc         1 X28       0.054200
     44 H211        -4.3520    -1.3620    -1.1630 hc         1 X28       0.018200
     45 H212        -2.8200    -2.0800    -0.4460 hc         1 X28       0.018200
     46 H271         2.3080     5.1030     0.4960 hn         1 X28       0.308000
     47 H272         1.0490     5.7760     1.5150 hn         1 X28       0.308000
@<TRIPOS>BOND
     1     1     2 ar  
     2     1     6 ar  
     3     1    28 1   
     4     2     3 ar  
     5     2    29 1   
     6     3     4 ar  
     7     3    31 1   
     8     4     5 ar  
     9     4     7 1   
    10     5     6 ar  
    11     5    32 1   
    12     6    30 1   
    13     7     8 1   
    14     7    33 1   
    15     7    34 1   
    16     8     9 ar  
    17     8    13 ar  
    18     9    10 ar  
    19     9    35 1   
    20    10    11 ar  
    21    10    37 1   
    22    11    12 ar  
    23    11    25 1   
    24    12    13 ar  
    25    12    14 1   
    26    13    36 1   
    27    14    15 ar  
    28    14    19 ar  
    29    15    16 ar  
    30    15    38 1   
    31    16    17 ar  
    32    16    40 1   
    33    17    18 ar  
    34    17    41 1   
    35    18    19 ar  
    36    18    20 1   
    37    19    39 1   
    38    20    21 1   
    39    20    42 1   
    40    20    43 1   
    41    21    22 1   
    42    21    44 1   
    43    21    45 1   
    44    22    23 1   
    45    22    24 1   
    46    25    26 2   
    47    25    27 1   
    48    27    46 1   
    49    27    47 1   
@<TRIPOS>SUBSTRUCTURE
     1 X28         1 TEMP              0 ****  ****    0 ROOT
