@<TRIPOS>MOLECULE
X29
   26    28     1     0     0
SMALL
No Charge or Current Charge


@<TRIPOS>ATOM
      1 C01          2.6400     0.5410     0.9500 cc         1 X29      -0.066900
      2 C02          3.4980     1.4550     0.2270 cc         1 X29      -0.074000
      3 C03          3.0010     2.2510    -0.7830 cd         1 X29      -0.072000
      4 C04          1.2720     0.4590     0.6980 cd         1 X29      -0.058000
      5 N05          0.7880     1.4170    -0.2020 na         1 X29       0.014200
      6 C06          1.5970     2.1530    -1.0000 cd         1 X29      -0.102000
      7 N07          0.8740     2.7090    -1.9550 nc         1 X29      -0.087000
      8 N08         -0.4350     2.2300    -1.8030 nc         1 X29      -0.329700
      9 C09         -0.4710     1.4280    -0.7400 cd         1 X29       0.355400
     10 Br1          3.4000    -0.6040     2.2420 br         1 X29      -0.051100
     11 C11         -1.6840     0.7190    -0.2920 ca         1 X29      -0.238900
     12 C12         -2.0970     0.6880     1.0600 ca         1 X29       0.204100
     13 C13         -3.2580    -0.0060     1.4280 ca         1 X29      -0.193000
     14 C14         -4.0410    -0.6460     0.4600 ca         1 X29       0.210100
     15 C15         -3.6680    -0.5830    -0.8940 ca         1 X29      -0.027000
     16 C16         -2.5010     0.1040    -1.2670 ca         1 X29       0.020000
     17 O17         -5.1700    -1.3090     0.8430 oh         1 X29      -0.517100
     18 O18         -1.4170     1.3530     2.0360 oh         1 X29      -0.532100
     19 Cl1         -4.6490    -1.3620    -2.1370 cl         1 X29      -0.192000
     20 H1           4.5590     1.4650     0.4570 ha         1 X29       0.143000
     21 H2           3.6430     2.8830    -1.3900 ha         1 X29       0.154000
     22 H3           0.5820    -0.2330     1.1670 h4         1 X29       0.173000
     23 H4          -3.5630    -0.0320     2.4700 ha         1 X29       0.154000
     24 H5          -2.2210     0.1400    -2.3190 ha         1 X29       0.144000
     25 H6          -5.5830    -1.6810     0.0340 ho         1 X29       0.486000
     26 H7          -0.8740     2.0570     1.6240 ho         1 X29       0.481000
@<TRIPOS>BOND
     1     1     2 1   
     2     1     4 2   
     3     1    10 1   
     4     2     3 2   
     5     2    20 1   
     6     3     6 1   
     7     3    21 1   
     8     4     5 1   
     9     4    22 1   
    10     5     6 1   
    11     5     9 1   
    12     6     7 2   
    13     7     8 1   
    14     8     9 2   
    15     9    11 1   
    16    11    12 ar  
    17    11    16 ar  
    18    12    13 ar  
    19    12    18 1   
    20    13    14 ar  
    21    13    23 1   
    22    14    15 ar  
    23    14    17 1   
    24    15    16 ar  
    25    15    19 1   
    26    16    24 1   
    27    17    25 1   
    28    18    26 1   
@<TRIPOS>SUBSTRUCTURE
     1 X29         1 TEMP              0 ****  ****    0 ROOT
