@<TRIPOS>MOLECULE
X2A
  122   130     1     0     0
SMALL
No Charge or Current Charge


@<TRIPOS>ATOM
      1 O4           7.3820    -0.9880     2.1530 o          1 X2A      -0.596100
      2 C30          7.6200    -0.9930     0.9500 c          1 X2A       0.613700
      3 N4           8.6430    -0.1770     0.4110 n          1 X2A      -0.399800
      4 C35          9.5670     0.5860     1.2930 c6         1 X2A       0.093500
      5 C34          9.1630     2.0760     1.3850 c6         1 X2A      -0.095900
      6 C33          9.0890     2.7200    -0.0240 c6         1 X2A      -0.013400
      7 C36          8.6680     4.1970     0.0370 ca         1 X2A      -0.079300
      8 C41          7.4150     4.5710     0.5650 ca         1 X2A      -0.104000
      9 C40          7.0400     5.9240     0.6130 ca         1 X2A      -0.115000
     10 C39          7.9130     6.9150     0.1340 ca         1 X2A      -0.086000
     11 C38          9.1680     6.5580    -0.3960 ca         1 X2A      -0.086300
     12 C42         10.1100     7.6320    -0.9240 c3         1 X2A       0.198100
     13 N5          10.8430     8.2960     0.1700 n8         1 X2A      -1.000200
     14 C37          9.5380     5.1980    -0.4410 ca         1 X2A      -0.108000
     15 C32          8.1470     1.8850    -0.9310 c6         1 X2A      -0.095900
     16 C31          8.5600     0.3940    -0.9640 c6         1 X2A       0.093500
     17 C28          6.8870    -1.9510     0.0310 ca         1 X2A      -0.114600
     18 C27          7.5380    -2.5980    -1.0430 ca         1 X2A      -0.113000
     19 C26          6.8340    -3.4910    -1.8660 ca         1 X2A      -0.092000
     20 C25          5.4740    -3.7530    -1.6290 ca         1 X2A      -0.121000
     21 C29          5.5300    -2.2480     0.2770 ca         1 X2A      -0.127000
     22 C24          4.8110    -3.1280    -0.5530 ca         1 X2A      -0.029000
     23 N3           3.4400    -3.3350    -0.2510 ns         1 X2A      -0.146000
     24 C23          2.4090    -3.9590    -0.9470 c          1 X2A       0.567100
     25 O3           2.5310    -4.4750    -2.0580 o          1 X2A      -0.545100
     26 C22          1.0720    -3.8280    -0.1060 c5         1 X2A       0.312000
     27 C43          0.7350    -5.2240     0.5450 cy         1 X2A       0.161000
     28 O6           1.7790    -5.5580     1.4640 oh         1 X2A      -0.708000
     29 C46         -0.6910    -5.4700     1.1720 cy         1 X2A      -0.097900
     30 C45         -0.5370    -6.9720     0.7690 cy         1 X2A      -0.086400
     31 C44          0.3670    -6.4380    -0.3890 cy         1 X2A      -0.097900
     32 O2           1.1630    -2.8200     0.9510 os         1 X2A      -0.441000
     33 C21          0.1940    -1.7880     0.6990 cy         1 X2A       0.108000
     34 C49          0.5910    -0.3960     1.3100 cy         1 X2A      -0.081900
     35 C48          0.0290    -0.9300     2.6680 cy         1 X2A      -0.087400
     36 C47         -0.9490    -1.7730     1.7860 cy         1 X2A      -0.081900
     37 O5          -0.0370    -3.4100    -0.9480 os         1 X2A      -0.450000
     38 C           -0.1040    -1.9810    -0.8240 c5         1 X2A       0.319000
     39 O7           0.9350    -1.3940    -1.6260 oh         1 X2A      -0.683000
     40 C1          -1.5450    -1.4030    -1.1810 c          1 X2A       0.575100
     41 O           -1.8190    -0.2290    -1.4240 o          1 X2A      -0.575100
     42 N           -2.4720    -2.4410    -1.1430 ns         1 X2A      -0.126000
     43 C2          -3.8810    -2.4730    -1.3230 ca         1 X2A      -0.034000
     44 C7          -4.6370    -1.3600    -1.7520 ca         1 X2A      -0.086000
     45 C6          -6.0420    -1.4400    -1.8750 ca         1 X2A      -0.117600
     46 C5          -6.6830    -2.6700    -1.6070 ca         1 X2A      -0.109000
     47 C4          -5.9360    -3.7840    -1.1940 ca         1 X2A      -0.090000
     48 C3          -4.5430    -3.6840    -1.0490 ca         1 X2A      -0.149000
     49 C8          -6.8140    -0.2240    -2.3440 c          1 X2A       0.615700
     50 O1          -6.3380     0.5180    -3.1960 o          1 X2A      -0.590100
     51 N1          -8.1250    -0.0150    -1.8530 n          1 X2A      -0.407800
     52 C13         -8.5070    -0.3560    -0.4530 c6         1 X2A       0.098000
     53 C12         -8.5480     0.9070     0.4410 c6         1 X2A      -0.093400
     54 C11         -9.4750     1.9990    -0.1540 c6         1 X2A      -0.013400
     55 C10         -9.0630     2.2990    -1.6190 c6         1 X2A      -0.093400
     56 C9          -9.0240     1.0020    -2.4610 c6         1 X2A       0.098000
     57 C14         -9.4910     3.2690     0.7120 ca         1 X2A      -0.080300
     58 C19         -8.3140     4.0190     0.9180 ca         1 X2A      -0.103000
     59 C18         -8.3390     5.1750     1.7140 ca         1 X2A      -0.115000
     60 C17         -9.5380     5.5930     2.3130 ca         1 X2A      -0.085000
     61 C16        -10.7220     4.8550     2.1180 ca         1 X2A      -0.087300
     62 C15        -10.6910     3.6960     1.3180 ca         1 X2A      -0.108000
     63 C20        -12.0200     5.3040     2.7770 c3         1 X2A       0.197100
     64 N2         -12.6720     6.3810     2.0100 n8         1 X2A      -0.998200
     65 H1           9.5940     0.1450     2.3000 h1         1 X2A       0.058450
     66 H2          10.5860     0.5100     0.8870 h1         1 X2A       0.058450
     67 H3           8.1940     2.1540     1.8950 hc         1 X2A       0.053950
     68 H4           9.8890     2.6180     2.0070 hc         1 X2A       0.053950
     69 H5          10.0960     2.6650    -0.4610 hc         1 X2A       0.048700
     70 H6           6.7270     3.8160     0.9390 ha         1 X2A       0.111000
     71 H7           6.0720     6.2050     1.0220 ha         1 X2A       0.112000
     72 H8           7.6170     7.9610     0.1750 ha         1 X2A       0.132000
     73 H9          10.8370     7.1830    -1.6150 h1         1 X2A       0.034200
     74 H10          9.5370     8.3890    -1.4770 h1         1 X2A       0.034200
     75 H11         11.4190     7.5940     0.6490 hn         1 X2A       0.397500
     76 H12         11.5310     8.9410    -0.2350 hn         1 X2A       0.397500
     77 H14         10.5070     4.9220    -0.8510 ha         1 X2A       0.105000
     78 H15          7.1110     1.9600    -0.5730 hc         1 X2A       0.053950
     79 H16          8.1540     2.2920    -1.9520 hc         1 X2A       0.053950
     80 H17          9.5400     0.2930    -1.4530 h1         1 X2A       0.058450
     81 H18          7.8310    -0.1470    -1.5800 h1         1 X2A       0.058450
     82 H19          8.5950    -2.4230    -1.2320 ha         1 X2A       0.122000
     83 H20          7.3450    -3.9860    -2.6900 ha         1 X2A       0.119000
     84 H21          4.9600    -4.4520    -2.2820 ha         1 X2A       0.150000
     85 H22          5.0220    -1.7660     1.1110 ha         1 X2A       0.127000
     86 H23          3.1420    -2.9220     0.6240 hn         1 X2A       0.174000
     87 H24          1.7630    -4.8740     2.1740 ho         1 X2A       0.516000
     88 H25         -0.7850    -5.2720     2.2440 hc         1 X2A       0.070450
     89 H26         -1.5110    -4.9540     0.6590 hc         1 X2A       0.070450
     90 H27         -0.0170    -7.5950     1.5070 hc         1 X2A       0.058700
     91 H28         -1.4560    -7.4850     0.4640 hc         1 X2A       0.058700
     92 H29         -0.1830    -6.1600    -1.2950 hc         1 X2A       0.070450
     93 H30          1.2000    -7.0850    -0.6820 hc         1 X2A       0.070450
     94 H31          1.6600    -0.1580     1.2930 hc         1 X2A       0.072450
     95 H32          0.0420     0.4560     0.8920 hc         1 X2A       0.072450
     96 H33          0.7400    -1.5210     3.2590 hc         1 X2A       0.059200
     97 H34         -0.4350    -0.1850     3.3230 hc         1 X2A       0.059200
     98 H35         -1.8630    -1.2350     1.5070 hc         1 X2A       0.072450
     99 H36         -1.2380    -2.7470     2.1940 hc         1 X2A       0.072450
    100 H37          0.7160    -1.6030    -2.5620 ho         1 X2A       0.557000
    101 H38         -2.0620    -3.3440    -0.9350 hn         1 X2A       0.172000
    102 H39         -4.1550    -0.4150    -1.9850 ha         1 X2A       0.162000
    103 H40         -7.7590    -2.7700    -1.7330 ha         1 X2A       0.122000
    104 H41         -6.4370    -4.7270    -0.9880 ha         1 X2A       0.119000
    105 H42         -3.9780    -4.5540    -0.7220 ha         1 X2A       0.117000
    106 H43         -9.4970    -0.8350    -0.4600 h1         1 X2A       0.055450
    107 H44         -7.8030    -1.0680    -0.0050 h1         1 X2A       0.055450
    108 H45         -8.8900     0.6340     1.4480 hc         1 X2A       0.054700
    109 H46         -7.5270     1.2960     0.5530 hc         1 X2A       0.054700
    110 H47        -10.4930     1.5850    -0.1790 hc         1 X2A       0.047700
    111 H48         -9.7690     3.0100    -2.0690 hc         1 X2A       0.054700
    112 H49         -8.0750     2.7770    -1.6500 hc         1 X2A       0.054700
    113 H50         -8.7080     1.2350    -3.4870 h1         1 X2A       0.055450
    114 H51        -10.0370     0.5820    -2.5280 h1         1 X2A       0.055450
    115 H52         -7.3770     3.7080     0.4620 ha         1 X2A       0.113000
    116 H53         -7.4270     5.7480     1.8680 ha         1 X2A       0.113000
    117 H54         -9.5510     6.4900     2.9280 ha         1 X2A       0.131000
    118 H55        -11.6050     3.1250     1.1690 ha         1 X2A       0.104000
    119 H56        -12.7130     4.4540     2.8530 h1         1 X2A       0.033700
    120 H57        -11.8150     5.6670     3.7930 h1         1 X2A       0.033700
    121 H58        -12.9120     6.0190     1.0800 hn         1 X2A       0.397000
    122 H59        -13.5840     6.5870     2.4350 hn         1 X2A       0.397000
@<TRIPOS>BOND
     1     1     2 2   
     2     2     3 1   
     3     2    17 1   
     4     3     4 1   
     5     3    16 1   
     6     4     5 1   
     7     4    65 1   
     8     4    66 1   
     9     5     6 1   
    10     5    67 1   
    11     5    68 1   
    12     6     7 1   
    13     6    15 1   
    14     6    69 1   
    15     7     8 ar  
    16     7    14 ar  
    17     8     9 ar  
    18     8    70 1   
    19     9    10 ar  
    20     9    71 1   
    21    10    11 ar  
    22    10    72 1   
    23    11    12 1   
    24    11    14 ar  
    25    12    13 1   
    26    12    73 1   
    27    12    74 1   
    28    13    75 1   
    29    13    76 1   
    30    14    77 1   
    31    15    16 1   
    32    15    78 1   
    33    15    79 1   
    34    16    80 1   
    35    16    81 1   
    36    17    18 ar  
    37    17    21 ar  
    38    18    19 ar  
    39    18    82 1   
    40    19    20 ar  
    41    19    83 1   
    42    20    22 ar  
    43    20    84 1   
    44    21    22 ar  
    45    21    85 1   
    46    22    23 1   
    47    23    24 1   
    48    23    86 1   
    49    24    25 2   
    50    24    26 1   
    51    26    27 1   
    52    26    32 1   
    53    26    37 1   
    54    27    28 1   
    55    27    29 1   
    56    27    31 1   
    57    28    87 1   
    58    29    30 1   
    59    29    88 1   
    60    29    89 1   
    61    30    31 1   
    62    30    90 1   
    63    30    91 1   
    64    31    92 1   
    65    31    93 1   
    66    32    33 1   
    67    33    34 1   
    68    33    36 1   
    69    33    38 1   
    70    34    35 1   
    71    34    94 1   
    72    34    95 1   
    73    35    36 1   
    74    35    96 1   
    75    35    97 1   
    76    36    98 1   
    77    36    99 1   
    78    37    38 1   
    79    38    39 1   
    80    38    40 1   
    81    39   100 1   
    82    40    41 2   
    83    40    42 1   
    84    42    43 1   
    85    42   101 1   
    86    43    44 ar  
    87    43    48 ar  
    88    44    45 ar  
    89    44   102 1   
    90    45    46 ar  
    91    45    49 1   
    92    46    47 ar  
    93    46   103 1   
    94    47    48 ar  
    95    47   104 1   
    96    48   105 1   
    97    49    50 2   
    98    49    51 1   
    99    51    52 1   
   100    51    56 1   
   101    52    53 1   
   102    52   106 1   
   103    52   107 1   
   104    53    54 1   
   105    53   108 1   
   106    53   109 1   
   107    54    55 1   
   108    54    57 1   
   109    54   110 1   
   110    55    56 1   
   111    55   111 1   
   112    55   112 1   
   113    56   113 1   
   114    56   114 1   
   115    57    58 ar  
   116    57    62 ar  
   117    58    59 ar  
   118    58   115 1   
   119    59    60 ar  
   120    59   116 1   
   121    60    61 ar  
   122    60   117 1   
   123    61    62 ar  
   124    61    63 1   
   125    62   118 1   
   126    63    64 1   
   127    63   119 1   
   128    63   120 1   
   129    64   121 1   
   130    64   122 1   
@<TRIPOS>SUBSTRUCTURE
     1 X2A         1 TEMP              0 ****  ****    0 ROOT
