@<TRIPOS>MOLECULE
X2C
   60    63     1     0     0
SMALL
No Charge or Current Charge


@<TRIPOS>ATOM
      1 N01         16.4350     7.6780    55.3350 nb         1 X2C      -0.743000
      2 C02         16.0100     8.8460    54.8780 ca         1 X2C       0.590900
      3 N02         14.6770     8.8790    54.7990 nv         1 X2C      -1.052900
      4 C03         16.8300     9.9210    54.5310 ca         1 X2C      -0.228000
      5 C04         18.2180     9.7720    54.6650 ca         1 X2C      -0.001300
      6 C05         18.6900     8.5390    55.1420 ca         1 X2C      -0.217000
      7 C06         17.7720     7.5210    55.4670 ca         1 X2C       0.393300
      8 C07         19.1740    10.8950    54.3000 c3         1 X2C      -0.052800
      9 C08         18.2580     6.1720    55.9770 c3         1 X2C      -0.109700
     10 O09         18.5770     3.3370    56.3720 os         1 X2C      -0.468000
     11 N1          18.5450     3.8060    53.0120 n7         1 X2C      -0.827400
     12 C10         19.0320     2.1260    57.0170 c3         1 X2C       0.153600
     13 C11         18.0120     1.7390    58.1190 c3         1 X2C       0.168800
     14 N12         16.6640     1.5070    57.5500 n7         1 X2C      -0.854400
     15 C13         15.6170     1.2820    58.5240 cx         1 X2C       0.113500
     16 C14         14.3990     0.5080    58.0690 cx         1 X2C      -0.075400
     17 C15         15.4050    -0.1340    58.9980 cx         1 X2C      -0.115400
     18 C2          17.7550     4.7560    53.8280 c5         1 X2C       0.142800
     19 C21         13.0020     0.8650    58.5210 ca         1 X2C      -0.041300
     20 C22         12.7490     1.3760    59.8130 ca         1 X2C      -0.111000
     21 C23         11.4400     1.7020    60.2170 ca         1 X2C      -0.076300
     22 C24         10.3720     1.5200    59.3190 ca         1 X2C      -0.113000
     23 C25         10.6120     1.0130    58.0320 ca         1 X2C      -0.106000
     24 C26         11.9200     0.6870    57.6360 ca         1 X2C      -0.106000
     25 C27         11.1850     2.2540    61.6110 c3         1 X2C      -0.045800
     26 C3          18.8050     5.2450    54.8560 c5         1 X2C      -0.087700
     27 C4          19.4100     3.8820    55.3150 c5         1 X2C       0.145300
     28 C5          19.2680     2.9850    54.0280 c5         1 X2C       0.107800
     29 HN02        14.2050     8.1340    55.2960 hn         1 X2C       0.466500
     30 HN0A        14.2260     9.7870    54.8030 hn         1 X2C       0.466500
     31 H03         16.3990    10.8480    54.1640 ha         1 X2C       0.119000
     32 H05         19.7560     8.3650    55.2610 ha         1 X2C       0.118000
     33 H07         20.0680    10.8790    54.9330 hc         1 X2C       0.046700
     34 H07A        19.4990    10.8070    53.2570 hc         1 X2C       0.046700
     35 H07B        18.7010    11.8770    54.4220 hc         1 X2C       0.046700
     36 H08         19.0450     6.3400    56.7220 hc         1 X2C       0.066200
     37 H08A        17.4470     5.6690    56.5170 hc         1 X2C       0.066200
     38 HN1         19.2390     4.3530    52.4870 hn         1 X2C       0.391000
     39 H10         19.1200     1.3010    56.2990 h1         1 X2C       0.031700
     40 H10A        20.0160     2.2820    57.4790 h1         1 X2C       0.031700
     41 H13         15.4610     2.0830    59.2490 h1         1 X2C       0.058700
     42 H14         14.4180     0.1560    57.0400 hc         1 X2C       0.093700
     43 H15         16.0450    -0.9110    58.5880 hc         1 X2C       0.076200
     44 H15A        15.1270    -0.2800    60.0380 hc         1 X2C       0.076200
     45 H2          17.3490     5.5800    53.2230 h1         1 X2C       0.068200
     46 H2'A        16.9120     4.2530    54.3250 h1         1 X2C       0.068200
     47 H22         13.5680     1.5230    60.5130 ha         1 X2C       0.107000
     48 H24          9.3570     1.7720    59.6180 ha         1 X2C       0.110000
     49 H25          9.7840     0.8730    57.3410 ha         1 X2C       0.112000
     50 H26         12.0900     0.2950    56.6360 ha         1 X2C       0.113000
     51 H27         11.3130     3.3420    61.6290 hc         1 X2C       0.040700
     52 H27A        10.1660     2.0310    61.9510 hc         1 X2C       0.040700
     53 H27B        11.8770     1.8220    62.3440 hc         1 X2C       0.040700
     54 H3          19.5820     5.8240    54.3410 hc         1 X2C       0.044700
     55 H4          20.4460     3.9780    55.6700 h1         1 X2C       0.040700
     56 H5          18.6920     2.0750    54.2480 h1         1 X2C       0.057200
     57 H5'A        20.2490     2.6650    53.6490 h1         1 X2C       0.057200
     58 H30         16.4400     2.3430    56.9930 hn         1 X2C       0.437000
     59 H11         18.3700     0.8380    58.6350 h1         1 X2C       0.039200
     60 H32         17.9810     2.5510    58.8570 h1         1 X2C       0.039200
@<TRIPOS>BOND
     1     1     2 ar  
     2     1     7 ar  
     3     2     3 1   
     4     2     4 ar  
     5     3    29 1   
     6     3    30 1   
     7     4     5 ar  
     8     4    31 1   
     9     5     6 ar  
    10     5     8 1   
    11     6     7 ar  
    12     6    32 1   
    13     7     9 1   
    14     8    33 1   
    15     8    34 1   
    16     8    35 1   
    17     9    26 1   
    18     9    36 1   
    19     9    37 1   
    20    10    12 1   
    21    10    27 1   
    22    11    18 1   
    23    11    28 1   
    24    11    38 1   
    25    12    13 1   
    26    12    39 1   
    27    12    40 1   
    28    13    14 1   
    29    13    59 1   
    30    13    60 1   
    31    14    15 1   
    32    14    58 1   
    33    15    16 1   
    34    15    17 1   
    35    15    41 1   
    36    16    17 1   
    37    16    19 1   
    38    16    42 1   
    39    17    43 1   
    40    17    44 1   
    41    18    26 1   
    42    18    45 1   
    43    18    46 1   
    44    19    20 ar  
    45    19    24 ar  
    46    20    21 ar  
    47    20    47 1   
    48    21    22 ar  
    49    21    25 1   
    50    22    23 ar  
    51    22    48 1   
    52    23    24 ar  
    53    23    49 1   
    54    24    50 1   
    55    25    51 1   
    56    25    52 1   
    57    25    53 1   
    58    26    27 1   
    59    26    54 1   
    60    27    28 1   
    61    27    55 1   
    62    28    56 1   
    63    28    57 1   
@<TRIPOS>SUBSTRUCTURE
     1 X2C         1 TEMP              0 ****  ****    0 ROOT
