@<TRIPOS>MOLECULE
X2C
   60    63     1     0     0
SMALL
abcg2


@<TRIPOS>ATOM
      1 N01         16.7830     8.0660    55.3930 nb         1 X2C      -0.743000
      2 C02         16.4300     9.2520    54.8850 ca         1 X2C       0.590900
      3 N02         15.0810     9.5240    54.8230 nv         1 X2C      -1.052900
      4 C03         17.3710    10.1700    54.3890 ca         1 X2C      -0.228000
      5 C04         18.7150     9.8420    54.4220 ca         1 X2C      -0.001300
      6 C05         19.0740     8.5970    54.9530 ca         1 X2C      -0.217000
      7 C06         18.0870     7.7430    55.4210 ca         1 X2C       0.393300
      8 C07         19.7610    10.7860    53.9000 c3         1 X2C      -0.052800
      9 C08         18.4340     6.3790    55.9560 c3         1 X2C      -0.109700
     10 O09         18.2840     3.6140    56.4610 os         1 X2C      -0.468000
     11 N1          17.8120     3.8560    53.1840 n7         1 X2C      -0.827400
     12 C10         18.7820     2.4840    57.1650 c3         1 X2C       0.153600
     13 C11         17.7880     2.1160    58.2420 c3         1 X2C       0.168800
     14 N12         16.5280     1.6700    57.6490 n7         1 X2C      -0.854400
     15 C13         15.5240     1.3350    58.6190 cx         1 X2C       0.113500
     16 C14         14.4600     0.3430    58.2120 cx         1 X2C      -0.075400
     17 C15         15.5430    -0.0400    59.2030 cx         1 X2C      -0.115400
     18 C2          17.4480     5.0750    53.9250 c5         1 X2C       0.142800
     19 C21         13.0410     0.5030    58.6100 ca         1 X2C      -0.041300
     20 C22         12.6630     0.9700    59.8740 ca         1 X2C      -0.111000
     21 C23         11.3240     1.1210    60.2320 ca         1 X2C      -0.076300
     22 C24         10.3390     0.7870    59.3000 ca         1 X2C      -0.113000
     23 C25         10.6950     0.3210    58.0400 ca         1 X2C      -0.106000
     24 C26         12.0350     0.1810    57.6960 ca         1 X2C      -0.106000
     25 C27         10.9480     1.6520    61.5900 c3         1 X2C      -0.045800
     26 C3          18.6490     5.3600    54.8350 c5         1 X2C      -0.087700
     27 C4          19.0420     3.9520    55.3000 c5         1 X2C       0.145300
     28 C5          18.6600     3.0510    54.0980 c5         1 X2C       0.107800
     29 HN02        14.5010     8.9700    55.4360 hn         1 X2C       0.466500
     30 HN0A        14.8120    10.4940    54.7620 hn         1 X2C       0.466500
     31 H03         17.0390    11.1210    53.9910 ha         1 X2C       0.119000
     32 H05         20.1150     8.3010    55.0010 ha         1 X2C       0.118000
     33 H07         20.5380    10.9560    54.6490 hc         1 X2C       0.046700
     34 H07A        20.2510    10.3640    53.0190 hc         1 X2C       0.046700
     35 H07B        19.3270    11.7460    53.6220 hc         1 X2C       0.046700
     36 H08         19.3480     6.4410    56.5540 hc         1 X2C       0.066200
     37 H08A        17.6320     6.0400    56.6100 hc         1 X2C       0.066200
     38 HN1         18.3780     4.1350    52.3910 hn         1 X2C       0.391000
     39 H10         18.9170     1.6360    56.4840 h1         1 X2C       0.031700
     40 H10A        19.7560     2.7250    57.6100 h1         1 X2C       0.031700
     41 H13         15.1910     2.1310    59.2850 h1         1 X2C       0.058700
     42 H14         14.5970    -0.0590    57.2160 hc         1 X2C       0.093700
     43 H15         16.3100    -0.7180    58.8520 hc         1 X2C       0.076200
     44 H15A        15.2550    -0.1610    60.2390 hc         1 X2C       0.076200
     45 H2          17.2240     5.8870    53.2340 h1         1 X2C       0.068200
     46 H2'A        16.5550     4.8910    54.5310 h1         1 X2C       0.068200
     47 H22         13.4240     1.2190    60.6050 ha         1 X2C       0.107000
     48 H24          9.2930     0.8900    59.5650 ha         1 X2C       0.110000
     49 H25          9.9250     0.0610    57.3240 ha         1 X2C       0.112000
     50 H26         12.3060    -0.1860    56.7130 ha         1 X2C       0.113000
     51 H27         10.7180     2.7200    61.5400 hc         1 X2C       0.040700
     52 H27A        10.0610     1.1480    61.9790 hc         1 X2C       0.040700
     53 H27B        11.7620     1.5220    62.3050 hc         1 X2C       0.040700
     54 H3          19.4640     5.7140    54.1940 hc         1 X2C       0.044700
     55 H4          20.1070     3.8900    55.5450 h1         1 X2C       0.040700
     56 H5          18.1030     2.1890    54.4710 h1         1 X2C       0.057200
     57 H5'A        19.5360     2.6800    53.5670 h1         1 X2C       0.057200
     58 H30         16.1810     2.3980    57.0340 hn         1 X2C       0.437000
     59 H11         18.2020     1.2990    58.8370 h1         1 X2C       0.039200
     60 H32         17.6530     2.9760    58.9170 h1         1 X2C       0.039200
@<TRIPOS>BOND
     1     1     2 ar  
     2     1     7 ar  
     3     2     3 1   
     4     2     4 ar  
     5     3    29 1   
     6     3    30 1   
     7     4     5 ar  
     8     4    31 1   
     9     5     6 ar  
    10     5     8 1   
    11     6     7 ar  
    12     6    32 1   
    13     7     9 1   
    14     8    33 1   
    15     8    34 1   
    16     8    35 1   
    17     9    26 1   
    18     9    36 1   
    19     9    37 1   
    20    10    12 1   
    21    10    27 1   
    22    11    18 1   
    23    11    28 1   
    24    11    38 1   
    25    12    13 1   
    26    12    39 1   
    27    12    40 1   
    28    13    14 1   
    29    13    59 1   
    30    13    60 1   
    31    14    15 1   
    32    14    58 1   
    33    15    16 1   
    34    15    17 1   
    35    15    41 1   
    36    16    17 1   
    37    16    19 1   
    38    16    42 1   
    39    17    43 1   
    40    17    44 1   
    41    18    26 1   
    42    18    45 1   
    43    18    46 1   
    44    19    20 ar  
    45    19    24 ar  
    46    20    21 ar  
    47    20    47 1   
    48    21    22 ar  
    49    21    25 1   
    50    22    23 ar  
    51    22    48 1   
    52    23    24 ar  
    53    23    49 1   
    54    24    50 1   
    55    25    51 1   
    56    25    52 1   
    57    25    53 1   
    58    26    27 1   
    59    26    54 1   
    60    27    28 1   
    61    27    55 1   
    62    28    56 1   
    63    28    57 1   
@<TRIPOS>SUBSTRUCTURE
     1 X2C         1 TEMP              0 ****  ****    0 ROOT
