@<TRIPOS>MOLECULE
X2D
   57    60     1     0     0
SMALL
abcg2


@<TRIPOS>ATOM
      1 N01          5.7150     5.6000    26.5550 nb         1 X2D      -0.743000
      2 C02          5.5080     6.8330    27.0310 ca         1 X2D       0.589900
      3 N02          6.6060     7.6620    27.1060 nv         1 X2D      -1.049900
      4 C03          4.2490     7.2640    27.4810 ca         1 X2D      -0.227000
      5 C04          3.1790     6.3880    27.4340 ca         1 X2D      -0.001300
      6 C05          3.4080     5.0990    26.9380 ca         1 X2D      -0.217000
      7 C06          4.6800     4.7450    26.5130 ca         1 X2D       0.393300
      8 C07          1.8120     6.8000    27.8980 c3         1 X2D      -0.052800
      9 C08          4.9690     3.3560    26.0080 c3         1 X2D      -0.108700
     10 O09          6.2520     0.9060    25.5580 os         1 X2D      -0.470000
     11 N1           6.5070     1.3650    28.8540 n7         1 X2D      -0.827400
     12 C10          6.2940    -0.3380    24.8720 c3         1 X2D       0.152600
     13 C11          7.3560    -0.2450    23.8000 c3         1 X2D       0.165800
     14 N12          8.6780    -0.0810    24.4040 n7         1 X2D      -0.851400
     15 C13          9.7160     0.1450    23.4380 cx         1 X2D       0.115500
     16 C14         11.1290    -0.2230    23.8230 cx         1 X2D      -0.082400
     17 C15         10.3630    -1.0390    22.8000 cx         1 X2D      -0.111400
     18 C2           6.3440     2.6150    28.0940 c5         1 X2D       0.141800
     19 C21         12.2820     0.6300    23.4540 ca         1 X2D      -0.032300
     20 C22         12.3460     1.3040    22.2290 ca         1 X2D      -0.106000
     21 C23         13.4390     2.1070    21.9430 ca         1 X2D       0.128000
     22 CL23        13.4890     2.9490    20.4020 cl         1 X2D      -0.221000
     23 C24         14.4930     2.2650    22.8310 ca         1 X2D      -0.105000
     24 C25         14.4310     1.5900    24.0450 ca         1 X2D      -0.100000
     25 C26         13.3410     0.7850    24.3540 ca         1 X2D      -0.103000
     26 C3           5.1630     2.3560    27.1510 c5         1 X2D      -0.087700
     27 C4           5.4100     0.9070    26.7110 c5         1 X2D       0.145300
     28 C5           6.1250     0.2690    27.9300 c5         1 X2D       0.106800
     29 HN02         7.3810     7.4010    26.5150 hn         1 X2D       0.465500
     30 HN0A         6.4240     8.6530    27.1360 hn         1 X2D       0.465500
     31 H03          4.1260     8.2740    27.8540 ha         1 X2D       0.119000
     32 H05          2.5990     4.3810    26.8800 ha         1 X2D       0.118000
     33 H07          1.0780     6.6700    27.0990 hc         1 X2D       0.046700
     34 H07A         1.4860     6.1780    28.7360 hc         1 X2D       0.046700
     35 H07B         1.7960     7.8420    28.2170 hc         1 X2D       0.046700
     36 H08          4.1420     3.0150    25.3800 hc         1 X2D       0.066200
     37 H08A         5.8650     3.3840    25.3900 hc         1 X2D       0.066200
     38 HN1          5.8430     1.3800    29.6190 hn         1 X2D       0.392000
     39 H10          6.5370    -1.1530    25.5640 h1         1 X2D       0.032700
     40 H10A         5.3150    -0.5490    24.4240 h1         1 X2D       0.032700
     41 H11          7.3490    -1.1670    23.2130 h1         1 X2D       0.040700
     42 H11A         7.1040     0.5810    23.1170 h1         1 X2D       0.040700
     43 HN12         8.6410     0.7010    25.0500 hn         1 X2D       0.437000
     44 H13          9.6180     1.0310    22.8100 h1         1 X2D       0.059700
     45 H14         11.2170    -0.6840    24.7990 hc         1 X2D       0.095700
     46 H15         10.0270    -2.0190    23.1130 hc         1 X2D       0.078200
     47 H15A        10.6680    -0.9620    21.7650 hc         1 X2D       0.078200
     48 H2           6.1840     3.4540    28.7700 h1         1 X2D       0.068700
     49 H2'A         7.2500     2.8180    27.5140 h1         1 X2D       0.068700
     50 H22         11.5530     1.2120    21.5000 ha         1 X2D       0.126000
     51 H24         15.3350     2.8950    22.5810 ha         1 X2D       0.129000
     52 H25         15.2420     1.6970    24.7550 ha         1 X2D       0.118000
     53 H26         13.3060     0.2690    25.3050 ha         1 X2D       0.119000
     54 H3           4.2560     2.3460    27.7640 hc         1 X2D       0.045700
     55 H4           4.4750     0.3950    26.4630 h1         1 X2D       0.041700
     56 H5           7.0160    -0.2530    27.5760 h1         1 X2D       0.057700
     57 H5'A         5.4960    -0.4550    28.4480 h1         1 X2D       0.057700
@<TRIPOS>BOND
     1     1     2 ar  
     2     1     7 ar  
     3     2     3 1   
     4     2     4 ar  
     5     3    29 1   
     6     3    30 1   
     7     4     5 ar  
     8     4    31 1   
     9     5     6 ar  
    10     5     8 1   
    11     6     7 ar  
    12     6    32 1   
    13     7     9 1   
    14     8    33 1   
    15     8    34 1   
    16     8    35 1   
    17     9    26 1   
    18     9    36 1   
    19     9    37 1   
    20    10    12 1   
    21    10    27 1   
    22    11    18 1   
    23    11    28 1   
    24    11    38 1   
    25    12    13 1   
    26    12    39 1   
    27    12    40 1   
    28    13    14 1   
    29    13    41 1   
    30    13    42 1   
    31    14    15 1   
    32    14    43 1   
    33    15    16 1   
    34    15    17 1   
    35    15    44 1   
    36    16    17 1   
    37    16    19 1   
    38    16    45 1   
    39    17    46 1   
    40    17    47 1   
    41    18    26 1   
    42    18    48 1   
    43    18    49 1   
    44    19    20 ar  
    45    19    25 ar  
    46    20    21 ar  
    47    20    50 1   
    48    21    22 1   
    49    21    23 ar  
    50    23    24 ar  
    51    23    51 1   
    52    24    25 ar  
    53    24    52 1   
    54    25    53 1   
    55    26    27 1   
    56    26    54 1   
    57    27    28 1   
    58    27    55 1   
    59    28    56 1   
    60    28    57 1   
@<TRIPOS>SUBSTRUCTURE
     1 X2D         1 TEMP              0 ****  ****    0 ROOT
