@<TRIPOS>MOLECULE
X2D
   57    60     1     0     0
SMALL
No Charge or Current Charge


@<TRIPOS>ATOM
      1 N01          6.0440     5.4600    26.6460 nb         1 X2D      -0.743000
      2 C02          5.8920     6.6950    27.0990 ca         1 X2D       0.589900
      3 N02          7.0640     7.3320    27.1720 nv         1 X2D      -1.049900
      4 C03          4.6730     7.2810    27.4480 ca         1 X2D      -0.227000
      5 C04          3.5050     6.5150    27.3210 ca         1 X2D      -0.001300
      6 C05          3.6440     5.2000    26.8480 ca         1 X2D      -0.217000
      7 C06          4.9240     4.7120    26.5210 ca         1 X2D       0.393300
      8 C07          2.1440     7.0820    27.6880 c3         1 X2D      -0.052800
      9 C08          5.1040     3.2870    26.0160 c3         1 X2D      -0.108700
     10 O09          6.1120     0.6170    25.6290 os         1 X2D      -0.470000
     11 N1           5.9330     1.0610    28.9880 n7         1 X2D      -0.827400
     12 C10          6.2590    -0.6710    24.9880 c3         1 X2D       0.152600
     13 C11          7.3410    -0.5530    23.8850 c3         1 X2D       0.165800
     14 N12          8.6460    -0.1380    24.4510 n7         1 X2D      -0.851400
     15 C13          9.6770     0.1410    23.4750 cx         1 X2D       0.115500
     16 C14         11.1140     0.0160    23.9320 cx         1 X2D      -0.082400
     17 C15         10.5170    -1.0190    23.0040 cx         1 X2D      -0.111400
     18 C2           6.2020     2.2640    28.1660 c5         1 X2D       0.141800
     19 C21         12.1900     0.9750    23.4800 ca         1 X2D      -0.032300
     20 C22         12.1810     1.5420    22.1860 ca         1 X2D      -0.106000
     21 C23         13.1940     2.4310    21.7930 ca         1 X2D       0.128000
     22 Cl23        13.1680     3.1280    20.1780 cl         1 X2D      -0.221000
     23 C24         14.2270     2.7660    22.6820 ca         1 X2D      -0.105000
     24 C25         14.2460     2.2080    23.9700 ca         1 X2D      -0.100000
     25 C26         13.2320     1.3180    24.3660 ca         1 X2D      -0.103000
     26 C3           5.0420     2.2170    27.1410 c5         1 X2D      -0.087700
     27 C4           5.1240     0.7260    26.6880 c5         1 X2D       0.145300
     28 C5           5.6620    -0.0030    27.9760 c5         1 X2D       0.106800
     29 HN02         7.8220     6.8820    26.6750 hn         1 X2D       0.465500
     30 HN0A         7.0520     8.3460    27.1660 hn         1 X2D       0.465500
     31 H03          4.6360     8.3030    27.8110 ha         1 X2D       0.119000
     32 H05          2.7740     4.5600    26.7350 ha         1 X2D       0.118000
     33 H07          1.3520     6.6520    27.0630 hc         1 X2D       0.046700
     34 H07A         1.9010     6.8650    28.7350 hc         1 X2D       0.046700
     35 H07B         2.1150     8.1700    27.5550 hc         1 X2D       0.046700
     36 H08          4.3250     3.0750    25.2740 hc         1 X2D       0.066200
     37 H08A         6.0540     3.2060    25.4740 hc         1 X2D       0.066200
     38 HN1          5.0680     1.2340    29.5140 hn         1 X2D       0.392000
     39 H10          6.5590    -1.4420    25.7090 h1         1 X2D       0.032700
     40 H10A         5.3110    -0.9830    24.5290 h1         1 X2D       0.032700
     41 H11          7.4350    -1.5200    23.3730 h1         1 X2D       0.040700
     42 H11A         6.9950     0.1800    23.1430 h1         1 X2D       0.040700
     43 HN12         8.4610     0.7090    25.0060 hn         1 X2D       0.437000
     44 H13          9.4480     0.9230    22.7490 h1         1 X2D       0.059700
     45 H14         11.2580    -0.3040    24.9610 hc         1 X2D       0.095700
     46 H15         10.3060    -2.0020    23.4150 hc         1 X2D       0.078200
     47 H15A        10.8320    -1.0230    21.9640 hc         1 X2D       0.078200
     48 H2           6.1890     3.1850    28.7680 h1         1 X2D       0.068700
     49 H2'A         7.1810     2.1990    27.6680 h1         1 X2D       0.068700
     50 H22         11.3930     1.2980    21.4790 ha         1 X2D       0.126000
     51 H24         15.0090     3.4550    22.3720 ha         1 X2D       0.129000
     52 H25         15.0450     2.4650    24.6630 ha         1 X2D       0.118000
     53 H26         13.2600     0.8930    25.3670 ha         1 X2D       0.119000
     54 H3           4.0880     2.3790    27.6580 hc         1 X2D       0.045700
     55 H4           4.1580     0.3380    26.3360 h1         1 X2D       0.041700
     56 H5           6.5880    -0.5510    27.7560 h1         1 X2D       0.057700
     57 H5'A         4.9360    -0.7330    28.3600 h1         1 X2D       0.057700
@<TRIPOS>BOND
     1     1     2 ar  
     2     1     7 ar  
     3     2     3 1   
     4     2     4 ar  
     5     3    29 1   
     6     3    30 1   
     7     4     5 ar  
     8     4    31 1   
     9     5     6 ar  
    10     5     8 1   
    11     6     7 ar  
    12     6    32 1   
    13     7     9 1   
    14     8    33 1   
    15     8    34 1   
    16     8    35 1   
    17     9    26 1   
    18     9    36 1   
    19     9    37 1   
    20    10    12 1   
    21    10    27 1   
    22    11    18 1   
    23    11    28 1   
    24    11    38 1   
    25    12    13 1   
    26    12    39 1   
    27    12    40 1   
    28    13    14 1   
    29    13    41 1   
    30    13    42 1   
    31    14    15 1   
    32    14    43 1   
    33    15    16 1   
    34    15    17 1   
    35    15    44 1   
    36    16    17 1   
    37    16    19 1   
    38    16    45 1   
    39    17    46 1   
    40    17    47 1   
    41    18    26 1   
    42    18    48 1   
    43    18    49 1   
    44    19    20 ar  
    45    19    25 ar  
    46    20    21 ar  
    47    20    50 1   
    48    21    22 1   
    49    21    23 ar  
    50    23    24 ar  
    51    23    51 1   
    52    24    25 ar  
    53    24    52 1   
    54    25    53 1   
    55    26    27 1   
    56    26    54 1   
    57    27    28 1   
    58    27    55 1   
    59    28    56 1   
    60    28    57 1   
@<TRIPOS>SUBSTRUCTURE
     1 X2D         1 TEMP              0 ****  ****    0 ROOT
