@<TRIPOS>MOLECULE
X2E
   59    61     1     0     0
SMALL
bcc


@<TRIPOS>ATOM
      1 N01          3.3400     0.1420     1.3510 nb         1 X2E      -0.752000
      2 C02          4.4330     0.8980     1.3080 ca         1 X2E       0.663200
      3 N02          5.3130     0.7750     2.3470 nv         1 X2E      -0.941500
      4 C03          4.6680     1.8230     0.2780 ca         1 X2E      -0.316300
      5 C04          3.7350     1.9510    -0.7320 ca         1 X2E      -0.001300
      6 C05          2.5890     1.1530    -0.6720 ca         1 X2E      -0.302300
      7 C06          2.4330     0.2690     0.3810 ca         1 X2E       0.463600
      8 C07          3.9470     2.8990    -1.8730 c3         1 X2E      -0.053800
      9 C08          1.2290    -0.6260     0.4680 c3         1 X2E      -0.108700
     10 O09         -0.7930    -2.4260     0.4290 os         1 X2E      -0.413600
     11 N1           1.6910    -3.4820    -1.9020 n7         1 X2E      -0.767200
     12 C10         -1.8860    -3.2880     0.6390 c3         1 X2E       0.133400
     13 C11         -3.0440    -2.4650     1.1620 c3         1 X2E       0.161800
     14 N11         -3.4190    -1.4370     0.2110 n7         1 X2E      -0.810200
     15 C13         -4.3780    -0.4740     0.7250 c3         1 X2E       0.180500
     16 C14         -4.4200     0.7470    -0.2020 c3         1 X2E      -0.039100
     17 C15         -5.7660    -1.0890     0.8400 c3         1 X2E      -0.088100
     18 C2           0.4070    -3.7560    -1.2760 c5         1 X2E       0.097800
     19 C21         -3.0960     1.4540    -0.3030 ca         1 X2E      -0.059300
     20 C22         -2.3260     1.3920    -1.4610 ca         1 X2E      -0.137000
     21 C23         -1.0930     2.0290    -1.5270 ca         1 X2E      -0.107000
     22 C24         -0.6030     2.7380    -0.4410 ca         1 X2E      -0.170000
     23 C25         -1.3780     2.7840     0.7030 ca         1 X2E       0.137900
     24 F25         -0.9190     3.4650     1.7670 f          1 X2E      -0.143900
     25 C26         -2.6060     2.1640     0.7930 ca         1 X2E      -0.171000
     26 C3           0.4140    -3.0700     0.1130 c5         1 X2E       0.118100
     27 C4           1.5740    -2.0460     0.0170 c5         1 X2E      -0.087700
     28 C5           2.0150    -2.1360    -1.4540 c5         1 X2E       0.131800
     29 HN02         5.2510    -0.0780     2.8780 hn         1 X2E       0.411300
     30 HN0A         6.2560     1.0900     2.1920 hn         1 X2E       0.411300
     31 H03          5.5690     2.4260     0.2840 ha         1 X2E       0.137000
     32 H05          1.8340     1.2200    -1.4460 ha         1 X2E       0.138000
     33 H07          4.2810     2.3590    -2.7610 hc         1 X2E       0.046367
     34 H07A         3.0220     3.4120    -2.1390 hc         1 X2E       0.046367
     35 H07B         4.7000     3.6500    -1.6410 hc         1 X2E       0.046367
     36 H08          0.8680    -0.6370     1.4980 hc         1 X2E       0.068200
     37 H08A         0.4270    -0.2170    -0.1500 hc         1 X2E       0.068200
     38 HN1          2.3820    -4.1220    -1.5280 hn         1 X2E       0.341800
     39 H10         -2.1810    -3.7920    -0.2910 h1         1 X2E       0.030200
     40 H10A        -1.6370    -4.0690     1.3700 h1         1 X2E       0.030200
     41 H11         -3.8820    -3.1470     1.3290 h1         1 X2E       0.035700
     42 H11A        -2.7760    -2.0520     2.1470 h1         1 X2E       0.035700
     43 HN11        -2.5720    -0.9430    -0.0470 hn         1 X2E       0.375800
     44 H13         -4.0840    -0.1190     1.7290 h1         1 X2E       0.020700
     45 H14         -4.7480     0.4280    -1.1950 hc         1 X2E       0.057700
     46 H14A        -5.1760     1.4390     0.1770 hc         1 X2E       0.057700
     47 H15         -6.4800    -0.3560     1.2160 hc         1 X2E       0.037367
     48 H15A        -6.1140    -1.4380    -0.1340 hc         1 X2E       0.037367
     49 H15B        -5.7800    -1.9370     1.5250 hc         1 X2E       0.037367
     50 H2          -0.3860    -3.3020    -1.8810 h1         1 X2E       0.062200
     51 H2'A         0.2170    -4.8290    -1.2320 h1         1 X2E       0.062200
     52 H22         -2.6940     0.8460    -2.3210 ha         1 X2E       0.140000
     53 H23         -0.5060     1.9760    -2.4350 ha         1 X2E       0.133000
     54 H24          0.3560     3.2380    -0.4770 ha         1 X2E       0.152000
     55 H26         -3.1800     2.2320     1.7090 ha         1 X2E       0.147000
     56 H3           0.6360    -3.8120     0.8930 h1         1 X2E       0.034700
     57 H4           2.3970    -2.4090     0.6400 hc         1 X2E       0.063700
     58 H5           3.0720    -1.9180    -1.6000 h1         1 X2E       0.059200
     59 H5'A         1.4480    -1.4170    -2.0570 h1         1 X2E       0.059200
@<TRIPOS>BOND
     1     1     2 ar  
     2     1     7 ar  
     3     2     3 1   
     4     2     4 ar  
     5     3    29 1   
     6     3    30 1   
     7     4     5 ar  
     8     4    31 1   
     9     5     6 ar  
    10     5     8 1   
    11     6     7 ar  
    12     6    32 1   
    13     7     9 1   
    14     8    33 1   
    15     8    34 1   
    16     8    35 1   
    17     9    27 1   
    18     9    36 1   
    19     9    37 1   
    20    10    12 1   
    21    10    26 1   
    22    11    18 1   
    23    11    28 1   
    24    11    38 1   
    25    12    13 1   
    26    12    39 1   
    27    12    40 1   
    28    13    14 1   
    29    13    41 1   
    30    13    42 1   
    31    14    15 1   
    32    14    43 1   
    33    15    16 1   
    34    15    17 1   
    35    15    44 1   
    36    16    19 1   
    37    16    45 1   
    38    16    46 1   
    39    17    47 1   
    40    17    48 1   
    41    17    49 1   
    42    18    26 1   
    43    18    50 1   
    44    18    51 1   
    45    19    20 ar  
    46    19    25 ar  
    47    20    21 ar  
    48    20    52 1   
    49    21    22 ar  
    50    21    53 1   
    51    22    23 ar  
    52    22    54 1   
    53    23    24 1   
    54    23    25 ar  
    55    25    55 1   
    56    26    27 1   
    57    26    56 1   
    58    27    28 1   
    59    27    57 1   
    60    28    58 1   
    61    28    59 1   
@<TRIPOS>SUBSTRUCTURE
     1 X2E         1 TEMP              0 ****  ****    0 ROOT
